REMARK  Name = ZINCkj00000GeQzc.1
REMARK                            x       y       z     vdW  Elec       q    Type
REMARK                         _______ _______ _______ _____ _____    ______ ____
ROOT
ATOM      1  N   LIG    1        3.904  -0.577  -0.923  0.00  0.00    -0.740 N 
ATOM      2  H   LIG    1        3.808  -1.198  -0.184  0.00  0.00    +0.400 HD
ATOM      3  C   LIG    1        4.364  -1.011  -2.113  0.00  0.00    +0.700 C 
ATOM      4  N   LIG    1        4.691  -2.308  -2.277  0.00  0.00    -0.730 N 
ATOM      5  H   LIG    1        4.596  -2.929  -1.538  0.00  0.00    +0.400 HD
ATOM      6  O   LIG    1        4.484  -0.232  -3.039  0.00  0.00    -0.580 OA
ENDROOT
BRANCH   1  10
ATOM      7  N   LIG    1        1.365   1.594  -0.002  0.00  0.00    -0.390 N 
ATOM      8  C   LIG    1        2.106   1.092   1.183  0.00  0.00    +0.260 C 
ATOM      9  C   LIG    1        3.590   1.214   0.752  0.00  0.00    +0.000 C 
ATOM     10  C   LIG    1        3.548   0.833  -0.745  0.00  0.00    +0.280 C 
ATOM     11  C   LIG    1        4.464   0.234   1.536  0.00  0.00    +0.070 C 
ATOM     12  C   LIG    1        2.091   1.076  -1.182  0.00  0.00    +0.250 C 
ATOM     13  H   LIG    1        1.364   2.603  -0.010  0.00  0.00    +0.430 HD
BRANCH   7  15
ATOM     14  C   LIG    1       -0.753   1.593  -1.232  0.00  0.00    +0.080 C 
ATOM     15  C   LIG    1       -0.013   1.086   0.008  0.00  0.00    +0.160 C 
ATOM     16  C   LIG    1       -0.729   1.579   1.267  0.00  0.00    +0.080 C 
ENDBRANCH   7  15
ENDBRANCH   1  10
BRANCH   4  17
ATOM     17  C   LIG    1        5.192  -2.780  -3.570  0.00  0.00    +0.340 C 
BRANCH  17  18
ATOM     18  C   LIG    1        5.482  -4.256  -3.489  0.00  0.00    -0.200 C 
ATOM     19  C   LIG    1        4.564  -5.092  -3.874  0.00  0.00    +0.010 C 
ATOM     20  C   LIG    1        4.757  -6.583  -3.827  0.00  0.00    +0.050 C 
ATOM     21  C   LIG    1        6.246  -6.904  -3.669  0.00  0.00    +0.210 C 
ATOM     22  O   LIG    1        6.776  -6.086  -2.620  0.00  0.00    -0.370 OA
ATOM     23  C   LIG    1        6.817  -4.698  -2.960  0.00  0.00    +0.270 C 
ENDBRANCH  17  18
ENDBRANCH   4  17
TORSDOF 4
