REMARK  Name = ZINCpe00000MBst1.0
REMARK                            x       y       z     vdW  Elec       q    Type
REMARK                         _______ _______ _______ _____ _____    ______ ____
ROOT
ATOM      1  O   LIG    1        4.766   4.806  -0.018  0.00  0.00    -0.530 OA
ATOM      2  C   LIG    1        3.551   4.792  -0.006  0.00  0.00    +0.610 C 
ATOM      3  N   LIG    1        2.864   5.952   0.007  0.00  0.00    -0.710 N 
ATOM      4  H   LIG    1        1.895   5.942   0.017  0.00  0.00    +0.410 HD
ENDROOT
BRANCH   2   5
ATOM      5  C   LIG    1        2.826   3.506  -0.006  0.00  0.00    -0.020 A 
ATOM      6  C   LIG    1        3.400   2.253  -0.019  0.00  0.00    +0.260 A 
ATOM      7  N   LIG    1        2.384   1.352  -0.013  0.00  0.00    -0.280 N 
ATOM      8  N   LIG    1        2.358  -0.046  -0.021  0.00  0.00    -0.260 NA
ATOM      9  C   LIG    1        1.223  -0.692  -0.013  0.00  0.00    +0.360 A 
ATOM     10  C   LIG    1        0.002  -0.004   0.002  0.00  0.00    -0.020 A 
ATOM     11  C   LIG    1       -0.016   1.356   0.009  0.00  0.00    +0.170 A 
ATOM     12  C   LIG    1        1.206   2.060   0.002  0.00  0.00    +0.170 A 
ATOM     13  N   LIG    1        1.491   3.351   0.006  0.00  0.00    -0.430 NA
ENDBRANCH   2   5
BRANCH   3  14
ATOM     14  C   LIG    1        3.583   7.229   0.007  0.00  0.00    +0.270 C 
BRANCH  14  15
ATOM     15  C   LIG    1        2.577   8.381   0.023  0.00  0.00    +0.300 C 
BRANCH  15  16
ATOM     16  N   LIG    1        3.296   9.657   0.023  0.00  0.00    -0.550 N 
ATOM     17  C   LIG    1        3.632  10.240   1.204  0.00  0.00    +0.570 A 
ATOM     18  N   LIG    1        4.273  11.366   1.287  0.00  0.00    -0.520 NA
ATOM     19  C   LIG    1        4.647  12.055   0.179  0.00  0.00    +0.150 A 
ATOM     20  C   LIG    1        5.331  13.269   0.268  0.00  0.00    +0.030 A 
ATOM     21  C   LIG    1        5.690  13.935  -0.882  0.00  0.00    +0.070 A 
ATOM     22  C   LIG    1        5.381  13.414  -2.132  0.00  0.00    +0.000 A 
ATOM     23  C   LIG    1        4.707  12.218  -2.245  0.00  0.00    +0.100 A 
ATOM     24  C   LIG    1        4.334  11.528  -1.093  0.00  0.00    -0.200 A 
ATOM     25  C   LIG    1        3.613  10.248  -1.152  0.00  0.00    +0.550 A 
ATOM     26  O   LIG    1        3.313   9.740  -2.217  0.00  0.00    -0.500 OA
ENDBRANCH  15  16
ENDBRANCH  14  15
ENDBRANCH   3  14
TORSDOF 4
