REMARK  Name = ZINCrH000004v7Sq.0
REMARK                            x       y       z     vdW  Elec       q    Type
REMARK                         _______ _______ _______ _____ _____    ______ ____
ROOT
ATOM      1  C   LIG    1       -1.238   3.136   0.024  0.00  0.00    +0.110 A 
ATOM      2  C   LIG    1       -1.217   1.760  -0.165  0.00  0.00    +0.060 A 
ATOM      3  C   LIG    1       -0.013   1.084  -0.180  0.00  0.00    +0.010 A 
ATOM      4  C   LIG    1        1.176   1.779  -0.016  0.00  0.00    +0.120 A 
ATOM      5  C   LIG    1        1.156   3.154   0.168  0.00  0.00    -0.060 A 
ATOM      6  C   LIG    1       -0.047   3.832   0.188  0.00  0.00    +0.030 A 
ENDROOT
BRANCH   1   9
ATOM      7  O   LIG    1       -3.473   2.132   1.066  0.00  0.00    -0.510 OA
ATOM      8  C   LIG    1       -3.558   3.227   0.544  0.00  0.00    +0.560 C 
ATOM      9  N   LIG    1       -2.458   3.822   0.043  0.00  0.00    -0.670 N 
ATOM     10  H   LIG    1       -2.512   4.726  -0.304  0.00  0.00    +0.410 HD
BRANCH   8  11
ATOM     11  C   LIG    1       -4.869   3.904   0.459  0.00  0.00    -0.140 A 
ATOM     12  C   LIG    1       -4.970   5.163  -0.135  0.00  0.00    +0.040 A 
ATOM     13  C   LIG    1       -6.198   5.787  -0.216  0.00  0.00    +0.000 A 
ATOM     14  C   LIG    1       -7.325   5.173   0.299  0.00  0.00    +0.040 A 
ATOM     15  C   LIG    1       -7.231   3.927   0.894  0.00  0.00    +0.000 A 
ATOM     16  C   LIG    1       -6.011   3.290   0.977  0.00  0.00    +0.080 A 
ENDBRANCH   8  11
ENDBRANCH   1   9
BRANCH   4  17
ATOM     17  O   LIG    1        2.361   1.113  -0.035  0.00  0.00    -0.300 OA
BRANCH  17  18
ATOM     18  C   LIG    1        3.546   1.892   0.140  0.00  0.00    +0.180 C 
BRANCH  18  19
ATOM     19  C   LIG    1        4.770   0.976   0.089  0.00  0.00    +0.230 C 
BRANCH  19  20
ATOM     20  O   LIG    1        4.883   0.404  -1.216  0.00  0.00    -0.540 OA
ATOM     21  H   LIG    1        4.984   1.055  -1.924  0.00  0.00    +0.380 HD
ENDBRANCH  19  20
BRANCH  19  22
ATOM     22  C   LIG    1        6.029   1.789   0.400  0.00  0.00    +0.180 C 
BRANCH  22  23
ATOM     23  O   LIG    1        7.157   0.914   0.467  0.00  0.00    -0.300 OA
BRANCH  23  24
ATOM     24  C   LIG    1        8.362   1.481   0.737  0.00  0.00    +0.130 A 
ATOM     25  C   LIG    1        8.458   2.852   0.928  0.00  0.00    -0.080 A 
ATOM     26  C   LIG    1        9.684   3.425   1.207  0.00  0.00    +0.050 A 
ATOM     27  C   LIG    1       10.815   2.634   1.287  0.00  0.00    -0.040 A 
ATOM     28  C   LIG    1       10.723   1.269   1.091  0.00  0.00    +0.050 A 
ATOM     29  C   LIG    1        9.499   0.690   0.817  0.00  0.00    -0.020 A 
ENDBRANCH  23  24
ENDBRANCH  22  23
ENDBRANCH  19  22
ENDBRANCH  18  19
ENDBRANCH  17  18
ENDBRANCH   4  17
TORSDOF 9
