REMARK  Name = ZINCrD0000075G25.0
REMARK                            x       y       z     vdW  Elec       q    Type
REMARK                         _______ _______ _______ _____ _____    ______ ____
ROOT
ATOM      1  O   LIG    1        3.296   4.415  -0.978  0.00  0.00    -0.580 OA
ATOM      2  C   LIG    1        3.862   3.664  -1.748  0.00  0.00    +0.710 C 
ATOM      3  N   LIG    1        4.159   2.406  -1.367  0.00  0.00    -0.730 N 
ATOM      4  H   LIG    1        4.611   1.806  -1.982  0.00  0.00    +0.400 HD
ATOM      5  N   LIG    1        4.194   4.090  -2.983  0.00  0.00    -0.740 N 
ATOM      6  H   LIG    1        4.645   3.491  -3.598  0.00  0.00    +0.400 HD
ENDROOT
BRANCH   3   7
ATOM      7  C   LIG    1        3.799   1.943  -0.024  0.00  0.00    +0.320 C 
ATOM      8  C   LIG    1        2.381   1.411  -0.014  0.00  0.00    -0.110 A 
ATOM      9  C   LIG    1        1.171   2.084   0.002  0.00  0.00    +0.050 A 
ATOM     10  C   LIG    1       -0.017   1.378   0.010  0.00  0.00    +0.000 A 
ATOM     11  C   LIG    1        0.002  -0.004   0.002  0.00  0.00    +0.010 A 
ATOM     12  C   LIG    1        1.208  -0.677  -0.014  0.00  0.00    +0.010 A 
ATOM     13  C   LIG    1        2.400   0.028  -0.023  0.00  0.00    -0.090 A 
ATOM     14  C   LIG    1        3.832  -0.465  -0.043  0.00  0.00    +0.080 C 
ATOM     15  C   LIG    1        4.676   0.748   0.381  0.00  0.00    -0.060 C 
ATOM     16  C   LIG    1        4.911   0.739   1.887  0.00  0.00    +0.020 C 
ATOM     17  C   LIG    1        5.824  -0.438   2.249  0.00  0.00    +0.210 C 
ATOM     18  O   LIG    1        7.040  -0.339   1.504  0.00  0.00    -0.380 OA
ATOM     19  C   LIG    1        6.866  -0.406   0.087  0.00  0.00    +0.210 C 
ATOM     20  C   LIG    1        6.000   0.771  -0.373  0.00  0.00    +0.010 C 
ENDBRANCH   3   7
BRANCH   5  21
ATOM     21  C   LIG    1        3.871   5.457  -3.397  0.00  0.00    +0.430 C 
BRANCH  21  22
ATOM     22  C   LIG    1        4.344   5.679  -4.811  0.00  0.00    -0.050 A 
ATOM     23  N   LIG    1        3.653   5.455  -5.882  0.00  0.00    -0.230 NA
ATOM     24  N   LIG    1        4.222   5.708  -6.982  0.00  0.00    -0.260 NA
ATOM     25  C   LIG    1        5.436   6.151  -6.916  0.00  0.00    +0.020 A 
ATOM     26  S   LIG    1        5.888   6.261  -5.268  0.00  0.00    +0.200 S 
BRANCH  25  27
ATOM     27  C   LIG    1        6.306   6.511  -8.092  0.00  0.00    +0.030 C 
ATOM     28  C   LIG    1        5.650   6.537  -9.475  0.00  0.00    +0.070 C 
ATOM     29  C   LIG    1        6.616   5.408  -9.106  0.00  0.00    +0.060 C 
ENDBRANCH  25  27
ENDBRANCH  21  22
ENDBRANCH   5  21
TORSDOF 4
