REMARK  Name = ZINCCC0000000dE7.0
REMARK                            x       y       z     vdW  Elec       q    Type
REMARK                         _______ _______ _______ _____ _____    ______ ____
ROOT
ATOM      1  C   LIG    1        3.245   0.768  -1.571  0.00  0.00    +0.510 C 
ATOM      2  N   LIG    1        4.295  -0.017  -1.881  0.00  0.00    -0.750 N 
ATOM      3  H   LIG    1        4.808  -0.441  -1.176  0.00  0.00    +0.400 HD
ATOM      4  O   LIG    1        2.603   1.299  -2.453  0.00  0.00    -0.500 OA
ENDROOT
BRANCH   1   5
ATOM      5  C   LIG    1        2.867   0.987  -0.128  0.00  0.00    +0.120 C 
BRANCH   5   9
ATOM      6  C   LIG    1       -0.533   3.568   0.080  0.00  0.00    +0.240 A 
ATOM      7  C   LIG    1        0.747   4.103   0.091  0.00  0.00    -0.080 A 
ATOM      8  C   LIG    1        1.845   3.266   0.023  0.00  0.00    +0.120 A 
ATOM      9  C   LIG    1        1.668   1.897  -0.055  0.00  0.00    -0.140 A 
ATOM     10  C   LIG    1        0.394   1.361  -0.067  0.00  0.00    +0.170 A 
ATOM     11  C   LIG    1       -0.707   2.194  -0.005  0.00  0.00    -0.710 A 
BRANCH  11  12
ATOM     12  S   LIG    1       -2.331   1.511  -0.028  0.00  0.00    +2.700 S 
ATOM     13  O   LIG    1       -2.172   0.100  -0.078  0.00  0.00    -0.960 OA
ATOM     14  O   LIG    1       -3.062   2.246  -0.999  0.00  0.00    -0.940 OA
BRANCH  12  15
ATOM     15  N   LIG    1       -3.026   1.851   1.436  0.00  0.00    -1.000 NA
ATOM     16  C   LIG    1       -2.900   0.920   2.569  0.00  0.00    +0.280 C 
ATOM     17  C   LIG    1       -2.417   1.716   3.792  0.00  0.00    +0.210 C 
ATOM     18  O   LIG    1       -3.277   2.842   3.988  0.00  0.00    -0.370 OA
ATOM     19  C   LIG    1       -3.271   3.778   2.908  0.00  0.00    +0.210 C 
ATOM     20  C   LIG    1       -3.793   3.090   1.641  0.00  0.00    +0.280 C 
ENDBRANCH  12  15
ENDBRANCH  11  12
BRANCH   6  22
ATOM     21  C   LIG    1       -1.359   5.792   0.225  0.00  0.00    +0.260 C 
ATOM     22  O   LIG    1       -1.614   4.388   0.145  0.00  0.00    -0.310 OA
ENDBRANCH   6  22
ENDBRANCH   5   9
ENDBRANCH   1   5
BRANCH   2  23
ATOM     23  C   LIG    1        4.662  -0.230  -3.283  0.00  0.00    +0.330 C 
BRANCH  23  24
ATOM     24  C   LIG    1        6.145  -0.479  -3.382  0.00  0.00    -0.120 A 
ATOM     25  C   LIG    1        6.851  -0.016  -4.476  0.00  0.00    +0.090 A 
ATOM     26  C   LIG    1        8.211  -0.243  -4.570  0.00  0.00    +0.050 A 
ATOM     27  C   LIG    1        8.868  -0.935  -3.567  0.00  0.00    +0.090 A 
ATOM     28  C   LIG    1        8.159  -1.400  -2.469  0.00  0.00    +0.090 A 
ATOM     29  F   LIG    1        8.797  -2.075  -1.488  0.00  0.00    -0.110 F 
ATOM     30  F   LIG    1       10.197  -1.158  -3.657  0.00  0.00    -0.110 F 
ATOM     31  C   LIG    1        6.798  -1.166  -2.376  0.00  0.00    -0.020 A 
ENDBRANCH  23  24
BRANCH  23  32
ATOM     32  C   LIG    1        3.903  -1.440  -3.831  0.00  0.00    +0.050 C 
ATOM     33  C   LIG    1        4.161  -1.567  -5.334  0.00  0.00    +0.100 C 
ATOM     34  C   LIG    1        2.405  -1.258  -3.584  0.00  0.00    +0.100 C 
BRANCH  32  35
ATOM     35  N   LIG    1        4.367  -2.657  -3.151  0.00  0.00    -0.390 N 
ATOM     36  C   LIG    1        3.895  -2.668  -1.742  0.00  0.00    +0.240 C 
ATOM     37  C   LIG    1        3.951  -4.170  -1.362  0.00  0.00    +0.070 C 
ATOM     38  C   LIG    1        3.505  -4.874  -2.664  0.00  0.00    +0.080 C 
ATOM     39  C   LIG    1        3.774  -3.854  -3.786  0.00  0.00    +0.260 C 
ATOM     40  H   LIG    1        5.374  -2.711  -3.180  0.00  0.00    +0.420 HD
ENDBRANCH  32  35
ENDBRANCH  23  32
ENDBRANCH   2  23
TORSDOF 9
