REMARK  Name = ZINCqH0000005AZl.0
REMARK                            x       y       z     vdW  Elec       q    Type
REMARK                         _______ _______ _______ _____ _____    ______ ____
ROOT
ATOM      1  C   LIG    1       -2.503   1.007   0.019  0.00  0.00    +0.560 C 
ATOM      2  N   LIG    1       -2.490  -0.341   0.012  0.00  0.00    -0.720 N 
ATOM      3  H   LIG    1       -1.645  -0.817   0.005  0.00  0.00    +0.400 HD
ATOM      4  O   LIG    1       -3.562   1.605   0.028  0.00  0.00    -0.530 OA
ENDROOT
BRANCH   1   9
ATOM      5  C   LIG    1       -0.048   3.850   0.023  0.00  0.00    -0.090 A 
ATOM      6  C   LIG    1        1.155   3.167   0.008  0.00  0.00    +0.050 A 
ATOM      7  C   LIG    1        1.172   1.783   0.000  0.00  0.00    +0.010 A 
ATOM      8  C   LIG    1       -0.013   1.076   0.008  0.00  0.00    +0.040 A 
ATOM      9  C   LIG    1       -1.230   1.759   0.017  0.00  0.00    -0.130 A 
ATOM     10  C   LIG    1       -1.240   3.154   0.030  0.00  0.00    +0.100 A 
BRANCH   5  11
ATOM     11  C   LIG    1       -0.057   5.357   0.032  0.00  0.00    +0.170 C 
BRANCH  11  12
ATOM     12  C   LIG    1       -0.074   5.867  -1.387  0.00  0.00    +0.460 C 
ATOM     13  O   LIG    1       -0.078   5.087  -2.309  0.00  0.00    -0.500 OA
BRANCH  12  15
ATOM     14  C   LIG    1       -0.100   7.607  -3.015  0.00  0.00    +0.260 C 
ATOM     15  O   LIG    1       -0.084   7.188  -1.625  0.00  0.00    -0.360 OA
ENDBRANCH  12  15
ENDBRANCH  11  12
ENDBRANCH   5  11
ENDBRANCH   1   9
BRANCH   2  16
ATOM     16  C   LIG    1       -3.751  -1.085   0.014  0.00  0.00    +0.240 C 
ATOM     17  C   LIG    1       -4.261  -1.229  -1.422  0.00  0.00    +0.020 C 
BRANCH  16  18
ATOM     18  C   LIG    1       -3.523  -2.474   0.615  0.00  0.00    -0.060 C 
ATOM     19  C   LIG    1       -2.487  -3.227  -0.222  0.00  0.00    +0.030 C 
ATOM     20  C   LIG    1       -2.259  -4.616   0.379  0.00  0.00    -0.020 C 
ATOM     21  C   LIG    1       -1.749  -4.473   1.815  0.00  0.00    +0.010 C 
ATOM     22  C   LIG    1       -2.785  -3.719   2.651  0.00  0.00    -0.020 C 
ATOM     23  C   LIG    1       -4.102  -4.497   2.653  0.00  0.00    +0.010 C 
ATOM     24  C   LIG    1       -4.612  -4.640   1.218  0.00  0.00    -0.020 C 
ATOM     25  C   LIG    1       -3.576  -5.394   0.381  0.00  0.00    +0.010 C 
ATOM     26  C   LIG    1       -3.013  -2.331   2.050  0.00  0.00    +0.020 C 
ATOM     27  C   LIG    1       -4.840  -3.252   0.617  0.00  0.00    +0.040 C 
ENDBRANCH  16  18
ENDBRANCH   2  16
TORSDOF 6
