REMARK  Name = ZINCrH000004tld6.0
REMARK                            x       y       z     vdW  Elec       q    Type
REMARK                         _______ _______ _______ _____ _____    ______ ____
ROOT
ATOM      1  C   LIG    1       -1.201   7.731   0.330  0.00  0.00    +0.150 A 
ATOM      2  C   LIG    1        0.000   8.402   0.135  0.00  0.00    +0.040 A 
ATOM      3  C   LIG    1        0.019   9.782   0.046  0.00  0.00    +0.050 A 
ATOM      4  C   LIG    1       -1.152  10.502   0.160  0.00  0.00    +0.050 A 
ATOM      5  C   LIG    1       -2.363   9.837   0.361  0.00  0.00    +0.010 A 
ATOM      6  C   LIG    1       -2.384   8.446   0.446  0.00  0.00    -0.020 A 
ENDROOT
BRANCH   5   7
ATOM      7  C   LIG    1       -3.620  10.607   0.484  0.00  0.00    +0.210 A 
ATOM      8  N   LIG    1       -3.732  11.887   0.768  0.00  0.00    -0.270 NA
ATOM      9  N   LIG    1       -4.975  12.222   0.786  0.00  0.00    -0.290 NA
ATOM     10  C   LIG    1       -5.718  11.186   0.514  0.00  0.00    +0.190 A 
ATOM     11  C   LIG    1       -7.221  11.144   0.415  0.00  0.00    +0.150 C 
ATOM     12  C   LIG    1       -7.741   9.936   1.199  0.00  0.00    +0.020 C 
ATOM     13  C   LIG    1       -7.772   8.710   0.291  0.00  0.00    +0.020 C 
ATOM     14  C   LIG    1       -6.624   8.759  -0.716  0.00  0.00    +0.030 C 
ATOM     15  C   LIG    1       -5.285   8.751   0.027  0.00  0.00    +0.290 C 
ATOM     16  N   LIG    1       -4.887  10.128   0.320  0.00  0.00    -0.470 N 
ENDBRANCH   5   7
BRANCH   1  18
ATOM     17  C   LIG    1       -0.260   5.612  -0.199  0.00  0.00    +0.560 C 
ATOM     18  N   LIG    1       -1.217   6.335   0.415  0.00  0.00    -0.670 N 
ATOM     19  H   LIG    1       -1.916   5.888   0.916  0.00  0.00    +0.410 HD
ATOM     20  O   LIG    1        0.561   6.165  -0.905  0.00  0.00    -0.500 OA
BRANCH  17  24
ATOM     21  C   LIG    1       -0.111   1.395   0.331  0.00  0.00    +0.010 A 
ATOM     22  C   LIG    1       -1.107   2.144   0.963  0.00  0.00    +0.060 A 
ATOM     23  C   LIG    1       -1.151   3.511   0.796  0.00  0.00    +0.050 A 
ATOM     24  C   LIG    1       -0.208   4.146  -0.015  0.00  0.00    -0.110 A 
ATOM     25  C   LIG    1        0.784   3.397  -0.651  0.00  0.00    +0.100 A 
ATOM     26  C   LIG    1        0.832   2.031  -0.480  0.00  0.00    +0.060 A 
BRANCH  21  28
ATOM     27  N   LIG    1       -0.022  -1.151   0.651  0.00  0.00    -0.400 NA
ATOM     28  C   LIG    1       -0.061  -0.025   0.509  0.00  0.00    +0.240 C 
ENDBRANCH  21  28
ENDBRANCH  17  24
ENDBRANCH   1  18
TORSDOF 4
