REMARK  Name = ZINCrH000004phB8.0
REMARK                            x       y       z     vdW  Elec       q    Type
REMARK                         _______ _______ _______ _____ _____    ______ ____
ROOT
ATOM      1  C   LIG    1        1.748  -0.193   0.876  0.00  0.00    +0.290 C 
ENDROOT
BRANCH   1   2
ATOM      2  N   LIG    1        1.878  -1.629   1.137  0.00  0.00    -0.730 N 
ATOM      3  H   LIG    1        1.086  -2.186   1.190  0.00  0.00    +0.400 HD
ATOM      4  C   LIG    1        3.099  -2.176   1.303  0.00  0.00    +0.520 C 
ATOM      5  O   LIG    1        4.089  -1.480   1.236  0.00  0.00    -0.530 OA
BRANCH   4   6
ATOM      6  C   LIG    1        3.232  -3.653   1.571  0.00  0.00    -0.070 C 
ATOM      7  C   LIG    1        2.630  -4.440   0.405  0.00  0.00    +0.040 C 
ATOM      8  C   LIG    1        2.765  -5.939   0.677  0.00  0.00    -0.010 C 
ATOM      9  C   LIG    1        2.023  -6.292   1.968  0.00  0.00    +0.020 C 
ATOM     10  C   LIG    1        2.625  -5.506   3.134  0.00  0.00    -0.010 C 
ATOM     11  C   LIG    1        4.105  -5.865   3.282  0.00  0.00    +0.010 C 
ATOM     12  C   LIG    1        4.847  -5.513   1.991  0.00  0.00    -0.020 C 
ATOM     13  C   LIG    1        4.245  -6.299   0.825  0.00  0.00    +0.010 C 
ATOM     14  C   LIG    1        2.490  -4.006   2.862  0.00  0.00    +0.040 C 
ATOM     15  C   LIG    1        4.712  -4.013   1.719  0.00  0.00    +0.050 C 
ENDBRANCH   4   6
ENDBRANCH   1   2
BRANCH   1  16
ATOM     16  C   LIG    1        0.269   0.167   0.728  0.00  0.00    +0.050 C 
BRANCH  16  19
ATOM     17  N   LIG    1       -1.085   2.190   0.288  0.00  0.00    -0.730 N 
ATOM     18  H   LIG    1       -1.877   1.632   0.338  0.00  0.00    +0.400 HD
ATOM     19  C   LIG    1        0.135   1.644   0.460  0.00  0.00    +0.520 C 
ATOM     20  O   LIG    1        1.126   2.340   0.393  0.00  0.00    -0.530 OA
BRANCH  17  22
ATOM     21  C   LIG    1       -1.104   3.883  -1.477  0.00  0.00    +0.040 C 
ATOM     22  C   LIG    1       -1.214   3.626   0.028  0.00  0.00    +0.280 C 
BRANCH  22  23
ATOM     23  C   LIG    1       -2.554   4.107   0.522  0.00  0.00    -0.130 A 
ATOM     24  C   LIG    1       -3.622   3.233   0.586  0.00  0.00    +0.040 A 
ATOM     25  C   LIG    1       -4.850   3.673   1.046  0.00  0.00    +0.010 A 
ATOM     26  C   LIG    1       -5.013   4.990   1.431  0.00  0.00    +0.050 A 
ATOM     27  C   LIG    1       -3.947   5.868   1.363  0.00  0.00    -0.010 A 
ATOM     28  C   LIG    1       -2.716   5.427   0.908  0.00  0.00    +0.110 A 
ATOM     29  F   LIG    1       -1.674   6.284   0.840  0.00  0.00    -0.130 F 
ENDBRANCH  22  23
ENDBRANCH  17  22
ENDBRANCH  16  19
ENDBRANCH   1  16
TORSDOF 6
