REMARK  Name = ZINCqH0000035Epo.0
REMARK                            x       y       z     vdW  Elec       q    Type
REMARK                         _______ _______ _______ _____ _____    ______ ____
ROOT
ATOM      1  S   LIG    1        0.243   5.522  -1.983  0.00  0.00    +2.700 S 
ATOM      2  O   LIG    1        0.708   4.179  -1.983  0.00  0.00    -0.940 OA
ATOM      3  O   LIG    1        0.901   6.572  -2.679  0.00  0.00    -0.940 OA
ENDROOT
BRANCH   1   4
ATOM      4  C   LIG    1       -1.409   5.477  -2.595  0.00  0.00    -0.640 A 
ATOM      5  C   LIG    1       -2.147   4.312  -2.507  0.00  0.00    +0.120 A 
ATOM      6  C   LIG    1       -3.445   4.274  -2.982  0.00  0.00    +0.060 A 
ATOM      7  C   LIG    1       -4.004   5.399  -3.556  0.00  0.00    +0.010 A 
ATOM      8  C   LIG    1       -3.263   6.569  -3.651  0.00  0.00    +0.090 A 
ATOM      9  C   LIG    1       -1.963   6.605  -3.169  0.00  0.00    +0.140 A 
BRANCH   8  10
ATOM     10  O   LIG    1       -3.811   7.677  -4.216  0.00  0.00    -0.310 OA
BRANCH  10  11
ATOM     11  C   LIG    1       -5.154   7.567  -4.691  0.00  0.00    +0.600 C 
ATOM     12  F   LIG    1       -5.222   6.572  -5.672  0.00  0.00    -0.160 F 
ATOM     13  F   LIG    1       -5.557   8.790  -5.237  0.00  0.00    -0.130 F 
ATOM     14  F   LIG    1       -5.999   7.231  -3.627  0.00  0.00    -0.160 F 
ENDBRANCH  10  11
ENDBRANCH   8  10
ENDBRANCH   1   4
BRANCH   1  15
ATOM     15  N   LIG    1        0.165   5.990  -0.397  0.00  0.00    -1.050 N 
ATOM     16  H   LIG    1        0.612   6.802  -0.108  0.00  0.00    +0.430 HD
BRANCH  15  20
ATOM     17  C   LIG    1       -1.957   3.687   2.358  0.00  0.00    +0.090 A 
ATOM     18  C   LIG    1       -1.944   5.067   2.472  0.00  0.00    -0.010 A 
ATOM     19  C   LIG    1       -1.242   5.831   1.558  0.00  0.00    -0.100 A 
ATOM     20  C   LIG    1       -0.545   5.216   0.527  0.00  0.00    +0.150 A 
ATOM     21  C   LIG    1       -0.551   3.832   0.414  0.00  0.00    -0.060 A 
ATOM     22  C   LIG    1       -1.234   7.333   1.681  0.00  0.00    +0.100 C 
ATOM     23  C   LIG    1       -1.254   3.067   1.329  0.00  0.00    +0.130 A 
BRANCH  17  25
ATOM     24  C   LIG    1       -3.352   3.639   4.285  0.00  0.00    +0.240 C 
ATOM     25  O   LIG    1       -2.653   2.936   3.255  0.00  0.00    -0.300 OA
ENDBRANCH  17  25
BRANCH  23  26
ATOM     26  O   LIG    1       -1.262   1.711   1.220  0.00  0.00    -0.300 OA
ATOM     27  C   LIG    1       -0.524   1.143   0.136  0.00  0.00    +0.240 C 
ENDBRANCH  23  26
ENDBRANCH  15  20
ENDBRANCH   1  15
TORSDOF 7
