REMARK  Name = ZINCtV00000L6jHh.0
REMARK                            x       y       z     vdW  Elec       q    Type
REMARK                         _______ _______ _______ _____ _____    ______ ____
ROOT
ATOM      1  C   LIG    1       -2.579  -3.190   0.010  0.00  0.00    +0.250 A 
ATOM      2  N   LIG    1       -3.671  -2.465   0.029  0.00  0.00    -0.490 NA
ATOM      3  C   LIG    1       -4.759  -3.278   0.030  0.00  0.00    +0.060 A 
ATOM      4  C   LIG    1       -6.135  -3.039   0.044  0.00  0.00    +0.060 A 
ATOM      5  C   LIG    1       -7.014  -4.099   0.047  0.00  0.00    +0.010 A 
ATOM      6  C   LIG    1       -6.543  -5.404   0.036  0.00  0.00    +0.030 A 
ATOM      7  C   LIG    1       -5.186  -5.657   0.022  0.00  0.00    +0.010 A 
ATOM      8  C   LIG    1       -4.287  -4.601   0.018  0.00  0.00    +0.060 A 
ATOM      9  N   LIG    1       -2.905  -4.518   0.005  0.00  0.00    -0.470 N 
ENDROOT
BRANCH   1  10
ATOM     10  S   LIG    1       -0.938  -2.550  -0.003  0.00  0.00    +0.050 S 
BRANCH  10  11
ATOM     11  C   LIG    1       -1.293  -0.775   0.010  0.00  0.00    +0.110 C 
BRANCH  11  13
ATOM     12  O   LIG    1        1.060  -0.596  -0.011  0.00  0.00    -0.420 OA
ATOM     13  C   LIG    1        0.002  -0.004   0.002  0.00  0.00    +0.420 C 
BRANCH  13  14
ATOM     14  C   LIG    1       -0.018   1.467   0.010  0.00  0.00    -0.150 A 
ATOM     15  C   LIG    1        1.182   2.186   0.003  0.00  0.00    +0.110 A 
ATOM     16  C   LIG    1        1.156   3.564   0.010  0.00  0.00    +0.040 A 
ATOM     17  C   LIG    1       -0.054   4.238   0.024  0.00  0.00    -0.000 A 
ATOM     18  C   LIG    1       -1.248   3.532   0.032  0.00  0.00    -0.050 A 
ATOM     19 CL   LIG    1       -2.759   4.386   0.050  0.00  0.00    -0.030 Cl
ATOM     20 CL   LIG    1       -0.076   5.973   0.034  0.00  0.00    -0.030 Cl
ATOM     21  C   LIG    1       -1.237   2.153   0.020  0.00  0.00    +0.110 A 
ENDBRANCH  13  14
ENDBRANCH  11  13
ENDBRANCH  10  11
ENDBRANCH   1  10
BRANCH   9  22
ATOM     22  C   LIG    1       -1.966  -5.642  -0.010  0.00  0.00    +0.320 C 
BRANCH  22  23
ATOM     23  C   LIG    1       -1.625  -6.042   1.427  0.00  0.00    +0.060 C 
BRANCH  23  24
ATOM     24  C   LIG    1       -0.659  -7.199   1.411  0.00  0.00    -0.090 A 
ATOM     25  C   LIG    1       -1.135  -8.497   1.413  0.00  0.00    +0.010 A 
ATOM     26  C   LIG    1       -0.250  -9.558   1.394  0.00  0.00    +0.000 A 
ATOM     27  C   LIG    1        1.112  -9.321   1.382  0.00  0.00    +0.000 A 
ATOM     28  C   LIG    1        1.588  -8.024   1.384  0.00  0.00    +0.000 A 
ATOM     29  C   LIG    1        0.703  -6.962   1.399  0.00  0.00    +0.010 A 
ENDBRANCH  23  24
ENDBRANCH  22  23
ENDBRANCH   9  22
TORSDOF 7
