REMARK  Name = ZINCpk00000jZl4i.0
REMARK                            x       y       z     vdW  Elec       q    Type
REMARK                         _______ _______ _______ _____ _____    ______ ____
ROOT
ATOM      1  C   LIG    1        2.418   1.477  -0.013  0.00  0.00    +0.290 C 
ATOM      2  N   LIG    1        1.139   2.192   0.003  0.00  0.00    -0.610 N 
ATOM      3  C   LIG    1       -0.018   1.503   0.010  0.00  0.00    +0.540 C 
ATOM      4  O   LIG    1       -1.077   2.095   0.018  0.00  0.00    -0.530 OA
ENDROOT
BRANCH   3   5
ATOM      5  C   LIG    1        0.002  -0.004   0.002  0.00  0.00    -0.060 C 
ATOM      6  C   LIG    1       -0.495  -0.710  -1.261  0.00  0.00    +0.070 C 
ATOM      7  C   LIG    1       -1.345  -0.729   0.011  0.00  0.00    +0.010 C 
BRANCH   7   8
ATOM      8  C   LIG    1       -1.433  -2.047   0.783  0.00  0.00    +0.010 C 
ATOM      9  C   LIG    1       -2.854  -2.610   0.676  0.00  0.00    +0.000 C 
ATOM     10  C   LIG    1       -2.954  -3.885   1.517  0.00  0.00    +0.210 C 
ATOM     11  O   LIG    1       -2.603  -3.592   2.871  0.00  0.00    -0.380 OA
ATOM     12  C   LIG    1       -1.268  -3.108   3.036  0.00  0.00    +0.200 C 
ATOM     13  C   LIG    1       -1.101  -1.800   2.258  0.00  0.00    +0.000 C 
ENDBRANCH   7   8
ENDBRANCH   3   5
BRANCH   2  14
ATOM     14  C   LIG    1        1.120   3.657   0.011  0.00  0.00    +0.280 C 
BRANCH  14  15
ATOM     15  C   LIG    1        1.127   4.160   1.456  0.00  0.00    +0.250 C 
BRANCH  15  16
ATOM     16  N   LIG    1        1.107   5.624   1.464  0.00  0.00    -0.730 N 
ATOM     17  H   LIG    1        1.092   6.114   0.627  0.00  0.00    +0.400 HD
ATOM     18  C   LIG    1        1.109   6.292   2.635  0.00  0.00    +0.540 C 
ATOM     19  O   LIG    1        1.127   5.680   3.682  0.00  0.00    -0.530 OA
BRANCH  18  20
ATOM     20  C   LIG    1        1.088   7.799   2.643  0.00  0.00    -0.120 C 
ATOM     21  C   LIG    1        1.087   8.303   4.090  0.00  0.00    +0.050 C 
ATOM     22  C   LIG    1       -0.193   7.827   4.784  0.00  0.00    -0.010 C 
ATOM     23  C   LIG    1       -1.407   8.325   3.994  0.00  0.00    +0.200 C 
ATOM     24  O   LIG    1       -1.328   7.846   2.650  0.00  0.00    -0.380 OA
ATOM     25  C   LIG    1        2.325   8.331   1.916  0.00  0.00    +0.060 C 
ATOM     26  C   LIG    1       -0.175   8.297   1.937  0.00  0.00    +0.220 C 
ENDBRANCH  18  20
ENDBRANCH  15  16
ENDBRANCH  14  15
ENDBRANCH   2  14
TORSDOF 6
