REMARK  Name = ZINCvU0000000Fy3.0
REMARK                            x       y       z     vdW  Elec       q    Type
REMARK                         _______ _______ _______ _____ _____    ______ ____
ROOT
ATOM      1  N   LIG    1       -5.028   0.329  -0.246  0.00  0.00    -0.470 N 
ATOM      2  C   LIG    1       -4.841   0.848  -1.528  0.00  0.00    +0.070 A 
ATOM      3  C   LIG    1       -4.186   2.067  -1.671  0.00  0.00    +0.050 A 
ATOM      4  C   LIG    1       -3.981   2.603  -2.927  0.00  0.00    -0.010 A 
ATOM      5  C   LIG    1       -4.425   1.934  -4.052  0.00  0.00    +0.020 A 
ATOM      6  C   LIG    1       -5.079   0.723  -3.922  0.00  0.00    +0.030 A 
ATOM      7  C   LIG    1       -5.289   0.179  -2.665  0.00  0.00    +0.130 A 
ATOM      8  N   LIG    1       -5.966  -1.048  -2.545  0.00  0.00    -0.540 N 
ATOM      9  C   LIG    1       -5.950  -1.711  -1.230  0.00  0.00    +0.260 C 
ATOM     10  C   LIG    1       -6.608  -1.597  -3.596  0.00  0.00    +0.660 C 
ATOM     11  O   LIG    1       -6.532  -1.078  -4.692  0.00  0.00    -0.540 OA
ATOM     12  C   LIG    1       -6.143  -0.619  -0.168  0.00  0.00    +0.180 C 
ATOM     13  C   LIG    1       -6.176  -1.258   1.222  0.00  0.00    +0.070 C 
ENDROOT
BRANCH   1  14
ATOM     14  C   LIG    1       -3.789  -0.273   0.265  0.00  0.00    +0.230 C 
BRANCH  14  17
ATOM     15  N   LIG    1       -1.774   0.510   1.466  0.00  0.00    -0.680 N 
ATOM     16  H   LIG    1       -1.313  -0.280   1.144  0.00  0.00    +0.410 HD
ATOM     17  C   LIG    1       -3.057   0.731   1.116  0.00  0.00    +0.500 C 
ATOM     18  O   LIG    1       -3.621   1.739   1.486  0.00  0.00    -0.470 OA
BRANCH  15  23
ATOM     19  C   LIG    1        0.929   4.201   4.823  0.00  0.00    +0.100 C 
ATOM     20  C   LIG    1        0.210   3.221   3.932  0.00  0.00    -0.080 A 
ATOM     21  C   LIG    1        0.843   2.716   2.811  0.00  0.00    +0.030 A 
ATOM     22  C   LIG    1        0.188   1.817   1.992  0.00  0.00    -0.090 A 
ATOM     23  C   LIG    1       -1.107   1.421   2.294  0.00  0.00    +0.150 A 
ATOM     24  C   LIG    1       -1.742   1.931   3.421  0.00  0.00    -0.030 A 
ATOM     25 CL   LIG    1       -3.365   1.445   3.800  0.00  0.00    -0.040 Cl
ATOM     26  C   LIG    1        0.879   1.267   0.771  0.00  0.00    +0.100 C 
ATOM     27  C   LIG    1       -1.081   2.830   4.236  0.00  0.00    +0.030 A 
ENDBRANCH  15  23
ENDBRANCH  14  17
ENDBRANCH   1  14
BRANCH  10  28
ATOM     28  O   LIG    1       -7.332  -2.720  -3.431  0.00  0.00    -0.360 OA
BRANCH  28  29
ATOM     29  C   LIG    1       -7.995  -3.255  -4.606  0.00  0.00    +0.140 C 
ATOM     30  C   LIG    1       -8.971  -2.214  -5.159  0.00  0.00    +0.040 C 
ATOM     31  C   LIG    1       -8.763  -4.522  -4.226  0.00  0.00    +0.080 C 
ATOM     32  C   LIG    1       -6.951  -3.592  -5.672  0.00  0.00    +0.040 C 
ENDBRANCH  28  29
ENDBRANCH  10  28
TORSDOF 5
