REMARK  Name = ZINCvU0000000DHo.0
REMARK                            x       y       z     vdW  Elec       q    Type
REMARK                         _______ _______ _______ _____ _____    ______ ____
ROOT
ATOM      1  N   LIG    1        2.572   5.574   2.565  0.00  0.00    -0.660 N 
ATOM      2  H   LIG    1        3.228   5.217   1.946  0.00  0.00    +0.420 HD
ATOM      3  C   LIG    1        1.491   6.229   2.098  0.00  0.00    +0.490 C 
ATOM      4  O   LIG    1        0.629   6.602   2.866  0.00  0.00    -0.500 OA
ENDROOT
BRANCH   3   5
ATOM      5  C   LIG    1        1.353   6.498   0.622  0.00  0.00    +0.120 C 
ATOM      6  C   LIG    1       -0.127   6.653   0.267  0.00  0.00    +0.140 C 
ATOM      7  C   LIG    1       -0.832   5.327   0.377  0.00  0.00    -0.020 A 
ATOM      8  C   LIG    1       -2.202   5.287   0.535  0.00  0.00    +0.040 A 
ATOM      9  C   LIG    1       -2.857   4.070   0.626  0.00  0.00    +0.010 A 
ATOM     10  C   LIG    1       -2.144   2.884   0.571  0.00  0.00    +0.030 A 
ATOM     11  C   LIG    1       -0.773   2.909   0.414  0.00  0.00    +0.120 A 
ATOM     12 CL   LIG    1       -4.582   4.031   0.818  0.00  0.00    -0.050 Cl
ATOM     13  C   LIG    1       -0.111   4.132   0.318  0.00  0.00    -0.180 A 
ATOM     14  C   LIG    1        1.360   4.177   0.154  0.00  0.00    +0.520 C 
ATOM     15  O   LIG    1        2.041   3.178   0.270  0.00  0.00    -0.430 OA
ATOM     16  C   LIG    1        2.102   7.784   0.265  0.00  0.00    +0.130 C 
ATOM     17  O   LIG    1        1.914   5.383  -0.131  0.00  0.00    -0.340 OA
ENDBRANCH   3   5
BRANCH   1  21
ATOM     18  C   LIG    1        3.097   5.080   6.672  0.00  0.00    +0.130 A 
ATOM     19  C   LIG    1        1.822   5.051   6.128  0.00  0.00    -0.060 A 
ATOM     20  C   LIG    1        1.647   5.215   4.768  0.00  0.00    +0.060 A 
ATOM     21  C   LIG    1        2.749   5.408   3.945  0.00  0.00    +0.100 A 
ATOM     22  C   LIG    1        4.026   5.431   4.490  0.00  0.00    +0.040 A 
ATOM     23  C   LIG    1        4.199   5.273   5.851  0.00  0.00    -0.090 A 
BRANCH  18  25
ATOM     24  C   LIG    1        2.091   4.724   8.797  0.00  0.00    +0.240 C 
ATOM     25  O   LIG    1        3.269   4.918   8.011  0.00  0.00    -0.310 OA
ENDBRANCH  18  25
BRANCH  23  26
ATOM     26  C   LIG    1        5.584   5.303   6.443  0.00  0.00    +0.140 C 
BRANCH  26  27
ATOM     27  C   LIG    1        6.107   3.895   6.570  0.00  0.00    -0.080 A 
ATOM     28  C   LIG    1        5.884   3.177   7.730  0.00  0.00    +0.020 A 
ATOM     29  C   LIG    1        6.360   1.885   7.845  0.00  0.00    +0.000 A 
ATOM     30  C   LIG    1        7.067   1.313   6.803  0.00  0.00    +0.000 A 
ATOM     31  C   LIG    1        7.295   2.033   5.645  0.00  0.00    +0.000 A 
ATOM     32  C   LIG    1        6.815   3.325   5.529  0.00  0.00    +0.000 A 
ENDBRANCH  26  27
ENDBRANCH  23  26
ENDBRANCH   1  21
TORSDOF 5
