REMARK  Name = ZINCAx0000000eab.0
REMARK                            x       y       z     vdW  Elec       q    Type
REMARK                         _______ _______ _______ _____ _____    ______ ____
ROOT
ATOM      1  C   LIG    1        1.308  -1.540   1.499  0.00  0.00    +0.520 C 
ATOM      2  N   LIG    1        1.153  -0.370   0.847  0.00  0.00    -0.620 N 
ATOM      3  C   LIG    1        0.002  -0.004   0.002  0.00  0.00    +0.250 C 
ATOM      4  C   LIG    1       -0.019   1.545   0.011  0.00  0.00    +0.040 C 
ATOM      5  C   LIG    1        1.497   1.877  -0.002  0.00  0.00    +0.050 C 
ATOM      6  C   LIG    1        2.105   0.750   0.860  0.00  0.00    +0.210 C 
ATOM      7  O   LIG    1        2.301  -1.734   2.169  0.00  0.00    -0.510 OA
ENDROOT
BRANCH   1   8
ATOM      8  C   LIG    1        0.248  -2.606   1.397  0.00  0.00    +0.060 C 
BRANCH   8   9
ATOM      9  C   LIG    1        0.667  -3.822   2.225  0.00  0.00    +0.130 C 
BRANCH   9  14
ATOM     10  C   LIG    1       -3.317  -7.891   1.786  0.00  0.00    +0.190 C 
ATOM     11  C   LIG    1       -2.277  -6.809   1.917  0.00  0.00    +0.400 A 
ATOM     12  N   LIG    1       -1.236  -6.825   1.127  0.00  0.00    -0.540 NA
ATOM     13  C   LIG    1       -0.290  -5.886   1.201  0.00  0.00    +0.190 A 
ATOM     14  C   LIG    1       -0.393  -4.889   2.123  0.00  0.00    -0.270 A 
ATOM     15  C   LIG    1       -1.517  -4.871   2.975  0.00  0.00    +0.530 A 
ATOM     16  O   LIG    1       -1.651  -3.993   3.811  0.00  0.00    -0.530 OA
ATOM     17  C   LIG    1        0.894  -5.933   0.269  0.00  0.00    +0.140 C 
ATOM     18  N   LIG    1       -2.441  -5.848   2.846  0.00  0.00    -0.630 N 
ATOM     19  H   LIG    1       -3.221  -5.856   3.422  0.00  0.00    +0.420 HD
ENDBRANCH   9  14
ENDBRANCH   8   9
ENDBRANCH   1   8
BRANCH   6  20
ATOM     20  C   LIG    1        3.442   0.304   0.265  0.00  0.00    +0.320 C 
BRANCH  20  21
ATOM     21  N   LIG    1        4.043  -0.717   1.125  0.00  0.00    -0.270 N 
ATOM     22  C   LIG    1        4.433  -1.953   0.736  0.00  0.00    +0.150 A 
ATOM     23  C   LIG    1        4.931  -2.557   1.840  0.00  0.00    -0.050 A 
ATOM     24  N   LIG    1        4.814  -1.676   2.840  0.00  0.00    -0.240 NA
ATOM     25  N   LIG    1        4.285  -0.596   2.384  0.00  0.00    -0.040 NA
BRANCH  23  26
ATOM     26  C   LIG    1        5.499  -3.950   1.927  0.00  0.00    +0.360 C 
BRANCH  26  27
ATOM     27  C   LIG    1        6.888  -3.891   2.507  0.00  0.00    -0.110 A 
ATOM     28  C   LIG    1        7.958  -3.542   1.705  0.00  0.00    +0.050 A 
ATOM     29  C   LIG    1        9.233  -3.487   2.237  0.00  0.00    +0.020 A 
ATOM     30  C   LIG    1        9.437  -3.781   3.572  0.00  0.00    +0.070 A 
ATOM     31  C   LIG    1        8.367  -4.130   4.375  0.00  0.00    -0.180 A 
ATOM     32  C   LIG    1        7.092  -4.180   3.844  0.00  0.00    +0.100 A 
BRANCH  31  33
ATOM     33  C   LIG    1        8.590  -4.450   5.831  0.00  0.00    +0.510 C 
ATOM     34  F   LIG    1        8.172  -5.760   6.090  0.00  0.00    -0.180 F 
ATOM     35  F   LIG    1        7.855  -3.561   6.622  0.00  0.00    -0.170 F 
ATOM     36  F   LIG    1        9.951  -4.326   6.132  0.00  0.00    -0.180 F 
ENDBRANCH  31  33
ENDBRANCH  26  27
BRANCH  26  37
ATOM     37  O   LIG    1        5.553  -4.525   0.620  0.00  0.00    -0.540 OA
ATOM     38  H   LIG    1        6.102  -4.032  -0.004  0.00  0.00    +0.370 HD
ENDBRANCH  26  37
ENDBRANCH  23  26
ENDBRANCH  20  21
ENDBRANCH   6  20
TORSDOF 9
