REMARK  Name = ZINCrH000004uc3E.0
REMARK                            x       y       z     vdW  Elec       q    Type
REMARK                         _______ _______ _______ _____ _____    ______ ____
ROOT
ATOM      1  C   LIG    1       -1.691   3.931  -2.364  0.00  0.00    +0.510 C 
ATOM      2  N   LIG    1       -1.578   3.106  -1.304  0.00  0.00    -0.610 N 
ATOM      3  C   LIG    1       -1.572   1.648  -1.489  0.00  0.00    +0.280 C 
ATOM      4  C   LIG    1       -0.326   1.070  -0.811  0.00  0.00    +0.010 C 
ATOM      5  C   LIG    1       -0.291   1.519   0.652  0.00  0.00    +0.030 C 
ATOM      6  C   LIG    1       -0.212   3.046   0.717  0.00  0.00    +0.030 C 
ATOM      7  C   LIG    1       -1.457   3.646   0.056  0.00  0.00    +0.330 C 
ATOM      8  O   LIG    1       -1.800   5.127  -2.192  0.00  0.00    -0.510 OA
ENDROOT
BRANCH   7   9
ATOM      9  C   LIG    1       -1.323   5.146  -0.006  0.00  0.00    +0.120 A 
ATOM     10  N   LIG    1       -2.233   5.966   0.361  0.00  0.00    -0.470 NA
ATOM     11  C   LIG    1       -1.976   7.283   0.250  0.00  0.00    +0.090 A 
ATOM     12  C   LIG    1       -2.786   8.389   0.574  0.00  0.00    +0.060 A 
ATOM     13  C   LIG    1       -2.330   9.659   0.382  0.00  0.00    +0.020 A 
ATOM     14  C   LIG    1       -1.063   9.887  -0.135  0.00  0.00    +0.020 A 
ATOM     15  C   LIG    1       -0.249   8.825  -0.461  0.00  0.00    +0.060 A 
ATOM     16  C   LIG    1       -0.698   7.521  -0.271  0.00  0.00    -0.170 A 
ATOM     17  S   LIG    1        0.067   5.963  -0.567  0.00  0.00    +0.110 S 
ENDBRANCH   7   9
BRANCH   1  18
ATOM     18  C   LIG    1       -1.683   3.369  -3.762  0.00  0.00    +0.050 C 
BRANCH  18  19
ATOM     19  C   LIG    1       -1.826   4.510  -4.771  0.00  0.00    +0.290 C 
BRANCH  19  22
ATOM     20  O   LIG    1       -2.041   5.989  -7.017  0.00  0.00    -0.510 OA
ATOM     21  C   LIG    1       -1.932   4.789  -7.189  0.00  0.00    +0.610 C 
ATOM     22  N   LIG    1       -1.818   3.963  -6.130  0.00  0.00    -0.720 N 
ATOM     23  H   LIG    1       -1.731   3.007  -6.268  0.00  0.00    +0.410 HD
BRANCH  21  24
ATOM     24  C   LIG    1       -1.924   4.241  -8.550  0.00  0.00    -0.090 A 
ATOM     25  C   LIG    1       -2.037   4.961  -9.705  0.00  0.00    +0.050 A 
ATOM     26  C   LIG    1       -1.979   4.039 -10.762  0.00  0.00    -0.060 A 
ATOM     27  C   LIG    1       -1.844   2.812 -10.213  0.00  0.00    +0.210 A 
ATOM     28  O   LIG    1       -1.811   2.938  -8.880  0.00  0.00    -0.170 OA
ENDBRANCH  21  24
ENDBRANCH  19  22
ENDBRANCH  18  19
ENDBRANCH   1  18
TORSDOF 5
