REMARK  Name = ZINCkj000005dlMd.0
REMARK                            x       y       z     vdW  Elec       q    Type
REMARK                         _______ _______ _______ _____ _____    ______ ____
ROOT
ATOM      1  C   LIG    1        2.803  -7.990  -0.173  0.00  0.00    +0.230 C 
ATOM      2  C   LIG    1        1.640  -9.004  -0.137  0.00  0.00    +0.040 C 
ATOM      3  C   LIG    1        0.524  -8.226   0.608  0.00  0.00    +0.060 C 
ATOM      4  C   LIG    1        0.756  -6.783   0.101  0.00  0.00    +0.270 C 
ATOM      5  N   LIG    1        2.220  -6.650  -0.012  0.00  0.00    -0.600 N 
ATOM      6  C   LIG    1        2.909  -5.493   0.031  0.00  0.00    +0.630 C 
ATOM      7  O   LIG    1        4.124  -5.509   0.026  0.00  0.00    -0.510 OA
ENDROOT
BRANCH   6   8
ATOM      8  C   LIG    1        2.185  -4.200   0.085  0.00  0.00    -0.030 A 
ATOM      9  N   LIG    1        0.886  -4.027   0.097  0.00  0.00    -0.320 NA
ATOM     10  O   LIG    1        0.590  -2.856   0.151  0.00  0.00    +0.140 OA
ATOM     11  C   LIG    1        1.679  -2.067   0.172  0.00  0.00    +0.030 A 
ATOM     12  C   LIG    1        2.760  -2.903   0.134  0.00  0.00    +0.030 A 
BRANCH  11  13
ATOM     13  C   LIG    1        1.703  -0.590   0.230  0.00  0.00    +0.010 A 
ATOM     14  C   LIG    1        0.514   0.148   0.264  0.00  0.00    +0.000 A 
ATOM     15  C   LIG    1        0.583   1.525   0.318  0.00  0.00    +0.280 A 
ATOM     16  N   LIG    1        1.747   2.145   0.338  0.00  0.00    -0.470 NA
ATOM     17  C   LIG    1        2.891   1.488   0.307  0.00  0.00    +0.280 A 
ATOM     18  C   LIG    1        2.915   0.110   0.253  0.00  0.00    +0.000 A 
ENDBRANCH  11  13
ENDBRANCH   6   8
BRANCH   1  19
ATOM     19  C   LIG    1        3.536  -8.081  -1.513  0.00  0.00    +0.250 C 
BRANCH  19  20
ATOM     20  N   LIG    1        4.199  -9.387  -1.621  0.00  0.00    -0.630 N 
ATOM     21  H   LIG    1        4.800  -9.527  -0.823  0.00  0.00    +0.440 HD
ATOM     22  H   LIG    1        4.750  -9.416  -2.466  0.00  0.00    +0.440 HD
ATOM     23  H   LIG    1        3.502 -10.117  -1.650  0.00  0.00    +0.430 HD
ENDBRANCH  19  20
ENDBRANCH   1  19
TORSDOF 4
