REMARK  Name = ZINCqH00000087rY.0
REMARK                            x       y       z     vdW  Elec       q    Type
REMARK                         _______ _______ _______ _____ _____    ______ ____
ROOT
ATOM      1  N   LIG    1       -1.411   6.126  -0.246  0.00  0.00    -0.510 NA
ATOM      2  C   LIG    1       -2.036   5.682  -1.500  0.00  0.00    +0.210 C 
ENDROOT
BRANCH   1   3
ATOM      3  C   LIG    1       -0.025   5.652  -0.152  0.00  0.00    +0.220 C 
BRANCH   3   6
ATOM      4  N   LIG    1        1.156   3.488   0.054  0.00  0.00    -0.670 N 
ATOM      5  H   LIG    1        1.988   3.982   0.125  0.00  0.00    +0.410 HD
ATOM      6  C   LIG    1       -0.014   4.148  -0.044  0.00  0.00    +0.520 C 
ATOM      7  O   LIG    1       -1.060   3.533  -0.046  0.00  0.00    -0.490 OA
BRANCH   4  13
ATOM      8  C   LIG    1        2.225   1.399  -0.551  0.00  0.00    -0.110 A 
ATOM      9  C   LIG    1        2.234   0.011  -0.547  0.00  0.00    +0.010 A 
ATOM     10  C   LIG    1        1.202  -0.685   0.053  0.00  0.00    +0.020 A 
ATOM     11  C   LIG    1        0.159  -0.003   0.652  0.00  0.00    +0.030 A 
ATOM     12  C   LIG    1        0.142   1.379   0.653  0.00  0.00    +0.050 A 
ATOM     13  C   LIG    1        1.172   2.086   0.054  0.00  0.00    +0.170 A 
BRANCH   8  15
ATOM     14  C   LIG    1        4.621   0.970  -1.933  0.00  0.00    +0.150 C 
ATOM     15  S   LIG    1        3.539   2.289  -1.316  0.00  0.00    -0.120 S 
ENDBRANCH   8  15
ENDBRANCH   4  13
ENDBRANCH   3   6
ENDBRANCH   1   3
BRANCH   1  16
ATOM     16  C   LIG    1       -1.478   7.588  -0.115  0.00  0.00    +0.220 C 
BRANCH  16  17
ATOM     17  C   LIG    1       -2.916   8.014   0.030  0.00  0.00    +0.520 C 
ATOM     18  N   LIG    1       -3.221   9.320   0.167  0.00  0.00    -0.670 N 
ATOM     19  H   LIG    1       -2.525   9.991   0.090  0.00  0.00    +0.420 HD
ATOM     20  O   LIG    1       -3.799   7.183   0.024  0.00  0.00    -0.490 OA
BRANCH  18  21
ATOM     21  C   LIG    1       -4.543   9.708   0.418  0.00  0.00    +0.130 A 
ATOM     22  C   LIG    1       -5.424   8.823   1.024  0.00  0.00    +0.080 A 
ATOM     23  C   LIG    1       -6.727   9.210   1.275  0.00  0.00    +0.060 A 
ATOM     24  C   LIG    1       -7.157  10.474   0.914  0.00  0.00    -0.030 A 
ATOM     25  C   LIG    1       -6.284  11.358   0.305  0.00  0.00    +0.030 A 
ATOM     26 CL   LIG    1       -8.796  10.953   1.226  0.00  0.00    -0.050 Cl
ATOM     27  C   LIG    1       -4.978  10.979   0.056  0.00  0.00    +0.080 A 
ATOM     28  F   LIG    1       -4.125  11.841  -0.540  0.00  0.00    -0.130 F 
ENDBRANCH  18  21
ENDBRANCH  16  17
ENDBRANCH   1  16
TORSDOF 7
