REMARK  Name = ZINCqH0000003Xdv.0
REMARK                            x       y       z     vdW  Elec       q    Type
REMARK                         _______ _______ _______ _____ _____    ______ ____
ROOT
ATOM      1  C   LIG    1        6.539  -0.705   2.425  0.00  0.00    +0.330 A 
ATOM      2  C   LIG    1        6.229   0.175   3.416  0.00  0.00    -0.090 A 
ATOM      3  C   LIG    1        7.261   0.141   4.359  0.00  0.00    +0.110 A 
ATOM      4  N   LIG    1        8.160  -0.721   3.960  0.00  0.00    -0.250 NA
ATOM      5  C   LIG    1        7.326   0.960   5.622  0.00  0.00    +0.170 C 
ATOM      6  N   LIG    1        7.733  -1.277   2.747  0.00  0.00    -0.330 N 
ENDROOT
BRANCH   6   7
ATOM      7  C   LIG    1        8.411  -2.240   2.001  0.00  0.00    +0.580 A 
ATOM      8  N   LIG    1        7.878  -2.672   0.869  0.00  0.00    -0.570 NA
ATOM      9  C   LIG    1        8.496  -3.582   0.134  0.00  0.00    +0.220 A 
ATOM     10  C   LIG    1        9.711  -4.090   0.569  0.00  0.00    -0.090 A 
ATOM     11  C   LIG    1       10.236  -3.619   1.762  0.00  0.00    +0.210 A 
ATOM     12  C   LIG    1       11.554  -4.141   2.274  0.00  0.00    +0.160 C 
ATOM     13  C   LIG    1        7.886  -4.064  -1.156  0.00  0.00    +0.150 C 
ATOM     14  N   LIG    1        9.568  -2.704   2.445  0.00  0.00    -0.510 NA
ENDBRANCH   6   7
BRANCH   1  16
ATOM     15  C   LIG    1        4.603  -0.335   1.102  0.00  0.00    +0.530 C 
ATOM     16  N   LIG    1        5.774  -0.975   1.292  0.00  0.00    -0.640 N 
ATOM     17  H   LIG    1        6.084  -1.623   0.641  0.00  0.00    +0.430 HD
ATOM     18  O   LIG    1        4.259   0.541   1.867  0.00  0.00    -0.500 OA
BRANCH  15  19
ATOM     19  C   LIG    1        3.720  -0.709  -0.061  0.00  0.00    +0.040 C 
BRANCH  19  20
ATOM     20  C   LIG    1        2.849  -1.876   0.325  0.00  0.00    -0.090 A 
ATOM     21  C   LIG    1        2.926  -3.061  -0.383  0.00  0.00    +0.010 A 
ATOM     22  C   LIG    1        2.127  -4.132  -0.029  0.00  0.00    +0.000 A 
ATOM     23  C   LIG    1        1.250  -4.018   1.033  0.00  0.00    +0.000 A 
ATOM     24  C   LIG    1        1.173  -2.833   1.742  0.00  0.00    +0.010 A 
ATOM     25  C   LIG    1        1.971  -1.762   1.387  0.00  0.00    +0.030 A 
ENDBRANCH  19  20
BRANCH  19  27
ATOM     26  C   LIG    1        3.716   1.620  -0.966  0.00  0.00    +0.010 C 
ATOM     27  C   LIG    1        2.839   0.483  -0.437  0.00  0.00    +0.060 C 
ENDBRANCH  19  27
ENDBRANCH  15  19
ENDBRANCH   1  16
TORSDOF 5
