REMARK  Name = ZINCrH000004lBk4.0
REMARK                            x       y       z     vdW  Elec       q    Type
REMARK                         _______ _______ _______ _____ _____    ______ ____
ROOT
ATOM      1  N   LIG    1        0.696   7.694   0.065  0.00  0.00    -0.690 N 
ATOM      2  H   LIG    1        0.573   8.174   0.899  0.00  0.00    +0.410 HD
ATOM      3  C   LIG    1        0.748   8.369  -1.100  0.00  0.00    +0.710 C 
ATOM      4  N   LIG    1        0.736   9.717  -1.098  0.00  0.00    -0.630 N 
ATOM      5  C   LIG    1        0.772  10.465   0.166  0.00  0.00    +0.270 C 
ATOM      6  C   LIG    1        1.934  11.468   0.107  0.00  0.00    +0.030 C 
ATOM      7  C   LIG    1        1.781  12.345  -1.137  0.00  0.00    +0.010 C 
ATOM      8  C   LIG    1        1.837  11.470  -2.391  0.00  0.00    +0.050 C 
ATOM      9  C   LIG    1        0.679  10.466  -2.361  0.00  0.00    +0.300 C 
ATOM     10  O   LIG    1        0.807   7.763  -2.152  0.00  0.00    -0.570 OA
ENDROOT
BRANCH   1  14
ATOM     11  C   LIG    1        1.062   3.544   0.086  0.00  0.00    -0.110 A 
ATOM     12  C   LIG    1        0.249   4.169   1.013  0.00  0.00    +0.050 A 
ATOM     13  C   LIG    1        0.129   5.545   1.012  0.00  0.00    -0.020 A 
ATOM     14  C   LIG    1        0.819   6.300   0.072  0.00  0.00    +0.170 A 
ATOM     15  C   LIG    1        1.630   5.668  -0.862  0.00  0.00    +0.020 A 
ATOM     16  C   LIG    1        1.749   4.292  -0.852  0.00  0.00    +0.050 A 
BRANCH  11  17
ATOM     17  C   LIG    1        1.195   2.042   0.093  0.00  0.00    +0.220 C 
BRANCH  17  19
ATOM     18  C   LIG    1        2.495   0.253   1.016  0.00  0.00    +0.200 C 
ATOM     19  O   LIG    1        2.283   1.664   0.939  0.00  0.00    -0.390 OA
ENDBRANCH  17  19
ENDBRANCH  11  17
ENDBRANCH   1  14
BRANCH   7  20
ATOM     20  C   LIG    1        2.898  13.356  -1.180  0.00  0.00    +0.520 C 
ATOM     21  N   LIG    1        3.046  14.239  -0.174  0.00  0.00    -0.670 N 
ATOM     22  H   LIG    1        2.398  14.267   0.547  0.00  0.00    +0.410 HD
ATOM     23  O   LIG    1        3.663  13.374  -2.121  0.00  0.00    -0.510 OA
BRANCH  21  24
ATOM     24  C   LIG    1        4.136  15.117  -0.168  0.00  0.00    +0.140 A 
ATOM     25  C   LIG    1        4.736  15.474   1.033  0.00  0.00    -0.030 A 
ATOM     26  C   LIG    1        5.815  16.336   1.035  0.00  0.00    +0.030 A 
ATOM     27  C   LIG    1        6.292  16.852  -0.156  0.00  0.00    -0.010 A 
ATOM     28  C   LIG    1        5.693  16.503  -1.353  0.00  0.00    +0.030 A 
ATOM     29  C   LIG    1        4.617  15.636  -1.362  0.00  0.00    +0.020 A 
ENDBRANCH  21  24
ENDBRANCH   7  20
TORSDOF 5
