REMARK  Name = ZINCrD00000hQ5ul.0
REMARK                            x       y       z     vdW  Elec       q    Type
REMARK                         _______ _______ _______ _____ _____    ______ ____
ROOT
ATOM      1  C   LIG    1        6.692  -0.558   5.321  0.00  0.00    +0.160 A 
ATOM      2  C   LIG    1        5.987  -1.365   6.204  0.00  0.00    -0.030 A 
ATOM      3  C   LIG    1        4.702  -1.771   5.896  0.00  0.00    +0.050 A 
ATOM      4  C   LIG    1        4.114  -1.372   4.712  0.00  0.00    +0.010 A 
ATOM      5  C   LIG    1        4.816  -0.569   3.822  0.00  0.00    +0.160 A 
ATOM      6  C   LIG    1        6.106  -0.159   4.128  0.00  0.00    -0.010 A 
ENDROOT
BRANCH   1   8
ATOM      7  C   LIG    1        8.417   1.080   5.270  0.00  0.00    +0.520 C 
ATOM      8  N   LIG    1        7.992  -0.146   5.634  0.00  0.00    -0.670 N 
ATOM      9  H   LIG    1        8.588  -0.744   6.113  0.00  0.00    +0.410 HD
ATOM     10  O   LIG    1        7.703   1.795   4.600  0.00  0.00    -0.510 OA
BRANCH   7  14
ATOM     11  C   LIG    1       11.710   4.807   5.012  0.00  0.00    +0.040 C 
ATOM     12  C   LIG    1       11.331   3.508   5.726  0.00  0.00    +0.220 C 
ATOM     13  C   LIG    1       10.028   2.968   5.135  0.00  0.00    +0.070 C 
ATOM     14  C   LIG    1        9.780   1.563   5.696  0.00  0.00    +0.000 C 
ATOM     15  C   LIG    1       10.855   0.623   5.144  0.00  0.00    +0.090 C 
ATOM     16  C   LIG    1       12.213   1.240   5.324  0.00  0.00    +0.520 C 
ATOM     17  O   LIG    1       13.185   0.519   5.247  0.00  0.00    -0.550 OA
ATOM     18  N   LIG    1       12.406   2.537   5.563  0.00  0.00    -0.720 N 
ATOM     19  H   LIG    1       13.320   2.855   5.633  0.00  0.00    +0.400 HD
ENDBRANCH   7  14
ENDBRANCH   1   8
BRANCH   5  20
ATOM     20  N   LIG    1        4.221  -0.169   2.620  0.00  0.00    -0.670 N 
ATOM     21  H   LIG    1        4.427   0.700   2.243  0.00  0.00    +0.410 HD
ATOM     22  C   LIG    1        3.363  -0.993   1.986  0.00  0.00    +0.520 C 
ATOM     23  O   LIG    1        3.176  -2.115   2.408  0.00  0.00    -0.520 OA
BRANCH  22  24
ATOM     24  C   LIG    1        2.635  -0.519   0.755  0.00  0.00    +0.000 C 
ATOM     25  C   LIG    1        1.730  -1.639   0.236  0.00  0.00    +0.040 C 
ATOM     26  C   LIG    1        0.991  -1.158  -1.015  0.00  0.00    +0.020 C 
ATOM     27  C   LIG    1        0.141   0.065  -0.666  0.00  0.00    -0.030 C 
ATOM     28  C   LIG    1        1.046   1.184  -0.147  0.00  0.00    +0.030 C 
ATOM     29  C   LIG    1       -0.599   0.546  -1.917  0.00  0.00    +0.010 C 
ATOM     30  C   LIG    1        1.785   0.704   1.103  0.00  0.00    +0.030 C 
ENDBRANCH  22  24
ENDBRANCH   5  20
TORSDOF 4
