REMARK  Name = ZINCrH000004sRZL.0
REMARK                            x       y       z     vdW  Elec       q    Type
REMARK                         _______ _______ _______ _____ _____    ______ ____
ROOT
ATOM      1  C   LIG    1        5.886   2.424   0.569  0.00  0.00    +0.180 C 
ATOM      2  C   LIG    1        4.700   1.549   0.255  0.00  0.00    +0.160 A 
ATOM      3  C   LIG    1        4.866   0.200   0.281  0.00  0.00    -0.250 A 
ATOM      4  C   LIG    1        3.695  -0.649  -0.009  0.00  0.00    +0.430 A 
ATOM      5  C   LIG    1        2.389   0.038  -0.013  0.00  0.00    -0.250 A 
ATOM      6  C   LIG    1        1.192  -0.676  -0.009  0.00  0.00    +0.160 A 
ATOM      7  C   LIG    1        0.002  -0.004   0.002  0.00  0.00    -0.090 A 
ATOM      8  C   LIG    1       -0.017   1.389   0.010  0.00  0.00    +0.190 A 
ATOM      9  C   LIG    1        1.164   2.111   0.002  0.00  0.00    -0.010 A 
ATOM     10  C   LIG    1        2.383   1.444  -0.013  0.00  0.00    +0.180 A 
ATOM     11  O   LIG    1        3.799  -1.843  -0.231  0.00  0.00    -0.450 OA
ATOM     12  O   LIG    1        3.539   2.134  -0.035  0.00  0.00    -0.210 OA
ENDROOT
BRANCH   3  13
ATOM     13  C   LIG    1        6.186  -0.400   0.591  0.00  0.00    -0.020 A 
ATOM     14  C   LIG    1        7.262  -0.212  -0.275  0.00  0.00    +0.010 A 
ATOM     15  C   LIG    1        8.489  -0.769   0.022  0.00  0.00    +0.010 A 
ATOM     16  C   LIG    1        8.650  -1.523   1.171  0.00  0.00    +0.000 A 
ATOM     17  C   LIG    1        7.584  -1.718   2.031  0.00  0.00    +0.000 A 
ATOM     18  C   LIG    1        6.354  -1.161   1.747  0.00  0.00    +0.020 A 
ENDBRANCH   3  13
BRANCH   8  19
ATOM     19  O   LIG    1       -1.205   2.045   0.019  0.00  0.00    -0.280 OA
BRANCH  19  20
ATOM     20  C   LIG    1       -2.388   1.243   0.020  0.00  0.00    +0.240 C 
BRANCH  20  21
ATOM     21  C   LIG    1       -3.601   2.138   0.031  0.00  0.00    +0.530 C 
ATOM     22  N   LIG    1       -4.836   1.598   0.034  0.00  0.00    -0.620 N 
ATOM     23  C   LIG    1       -5.144   0.161   0.021  0.00  0.00    +0.230 C 
ATOM     24  C   LIG    1       -6.680   0.020   0.005  0.00  0.00    +0.040 C 
ATOM     25  C   LIG    1       -7.146   1.384  -0.570  0.00  0.00    +0.040 C 
ATOM     26  C   LIG    1       -6.103   2.352   0.044  0.00  0.00    +0.260 C 
ATOM     27  O   LIG    1       -3.466   3.343   0.036  0.00  0.00    -0.510 OA
ENDBRANCH  20  21
ENDBRANCH  19  20
ENDBRANCH   8  19
TORSDOF 4
