REMARK  Name = ZINCrH000004tjBM.0
REMARK                            x       y       z     vdW  Elec       q    Type
REMARK                         _______ _______ _______ _____ _____    ______ ____
ROOT
ATOM      1  C   LIG    1       -2.306   2.658  -8.170  0.00  0.00    +0.100 A 
ATOM      2  C   LIG    1       -3.109   1.541  -7.972  0.00  0.00    +0.000 A 
ATOM      3  C   LIG    1       -3.105   0.894  -6.756  0.00  0.00    +0.060 A 
ATOM      4  C   LIG    1       -2.293   1.363  -5.720  0.00  0.00    -0.130 A 
ATOM      5  C   LIG    1       -1.492   2.491  -5.921  0.00  0.00    +0.110 A 
ATOM      6  C   LIG    1       -1.497   3.128  -7.142  0.00  0.00    +0.020 A 
ENDROOT
BRANCH   4   7
ATOM      7  C   LIG    1       -2.286   0.673  -4.415  0.00  0.00    +0.570 C 
ATOM      8  N   LIG    1       -2.933  -0.500  -4.270  0.00  0.00    -0.610 N 
ATOM      9  C   LIG    1       -3.772  -1.148  -5.291  0.00  0.00    +0.250 C 
ATOM     10  C   LIG    1       -4.284  -2.477  -4.690  0.00  0.00    +0.060 C 
ATOM     11  C   LIG    1       -3.278  -2.750  -3.562  0.00  0.00    -0.110 C 
ATOM     12  C   LIG    1       -3.882  -3.618  -2.457  0.00  0.00    +0.030 C 
ATOM     13  C   LIG    1       -2.935  -4.842  -2.395  0.00  0.00    +0.200 C 
ATOM     14  O   LIG    1       -2.312  -4.892  -3.702  0.00  0.00    -0.370 OA
ATOM     15  C   LIG    1       -2.052  -3.514  -4.064  0.00  0.00    +0.210 C 
ATOM     16  C   LIG    1       -2.917  -1.347  -3.060  0.00  0.00    +0.290 C 
ATOM     17  O   LIG    1       -1.696   1.164  -3.472  0.00  0.00    -0.530 OA
ENDBRANCH   4   7
BRANCH   1  18
ATOM     18  O   LIG    1       -2.312   3.292  -9.370  0.00  0.00    -0.250 OA
BRANCH  18  25
ATOM     19  C   LIG    1       -3.382   4.836 -10.850  0.00  0.00    -0.090 A 
ATOM     20  C   LIG    1       -4.489   5.636 -11.151  0.00  0.00    +0.190 A 
ATOM     21  C   LIG    1       -5.562   5.682 -10.281  0.00  0.00    -0.030 A 
ATOM     22  C   LIG    1       -5.548   4.934  -9.117  0.00  0.00    +0.130 A 
ATOM     23  C   LIG    1       -4.463   4.135  -8.811  0.00  0.00    -0.060 A 
ATOM     24  F   LIG    1       -4.508   6.367 -12.287  0.00  0.00    -0.120 F 
ATOM     25  C   LIG    1       -3.378   4.076  -9.671  0.00  0.00    +0.200 A 
BRANCH  19  27
ATOM     26  N   LIG    1       -1.376   4.749 -12.450  0.00  0.00    -0.390 NA
ATOM     27  C   LIG    1       -2.264   4.787 -11.742  0.00  0.00    +0.250 C 
ENDBRANCH  19  27
ENDBRANCH  18  25
ENDBRANCH   1  18
TORSDOF 4
