REMARK  Name = ZINCrH000004o7qx.0
REMARK                            x       y       z     vdW  Elec       q    Type
REMARK                         _______ _______ _______ _____ _____    ______ ____
ROOT
ATOM      1  C   LIG    1       -3.871   9.519   0.438  0.00  0.00    +0.510 C 
ATOM      2  N   LIG    1       -2.688   8.908   0.229  0.00  0.00    -0.640 N 
ATOM      3  H   LIG    1       -1.878   9.434   0.148  0.00  0.00    +0.430 HD
ATOM      4  O   LIG    1       -4.896   8.868   0.456  0.00  0.00    -0.500 OA
ENDROOT
BRANCH   2   5
ATOM      5  C   LIG    1       -2.629   7.515   0.129  0.00  0.00    +0.150 A 
ATOM      6  C   LIG    1       -1.530   6.828   0.628  0.00  0.00    +0.000 A 
ATOM      7  C   LIG    1       -1.472   5.451   0.530  0.00  0.00    +0.050 A 
ATOM      8  C   LIG    1       -2.509   4.753  -0.059  0.00  0.00    +0.000 A 
ATOM      9  C   LIG    1       -3.608   5.435  -0.565  0.00  0.00    +0.110 A 
ATOM     10  C   LIG    1       -3.670   6.816  -0.468  0.00  0.00    +0.030 A 
BRANCH   9  11
ATOM     11  O   LIG    1       -4.625   4.748  -1.149  0.00  0.00    -0.250 OA
BRANCH  11  12
ATOM     12  C   LIG    1       -4.724   4.786  -2.501  0.00  0.00    +0.310 A 
ATOM     13  C   LIG    1       -5.685   4.014  -3.142  0.00  0.00    -0.040 A 
ATOM     14  C   LIG    1       -5.776   4.061  -4.522  0.00  0.00    +0.100 A 
ATOM     15  C   LIG    1       -4.898   4.883  -5.216  0.00  0.00    -0.070 A 
ATOM     16  C   LIG    1       -3.964   5.619  -4.514  0.00  0.00    +0.300 A 
ATOM     17  N   LIG    1       -3.905   5.557  -3.197  0.00  0.00    -0.530 NA
ENDBRANCH  11  12
ENDBRANCH   9  11
ENDBRANCH   2   5
BRANCH   1  20
ATOM     18  N   LIG    1       -5.104  11.608   0.855  0.00  0.00    -0.700 N 
ATOM     19  H   LIG    1       -5.923  11.088   0.870  0.00  0.00    +0.410 HD
ATOM     20  C   LIG    1       -3.921  10.997   0.647  0.00  0.00    +0.510 C 
ATOM     21  O   LIG    1       -2.897  11.647   0.629  0.00  0.00    -0.510 OA
BRANCH  18  22
ATOM     22  C   LIG    1       -5.154  13.058   1.060  0.00  0.00    +0.290 C 
BRANCH  22  24
ATOM     23  C   LIG    1       -7.406  13.238  -0.005  0.00  0.00    +0.030 C 
ATOM     24  C   LIG    1       -6.605  13.494   1.273  0.00  0.00    +0.050 C 
BRANCH  24  25
ATOM     25  C   LIG    1       -6.644  14.963   1.605  0.00  0.00    -0.100 A 
ATOM     26  C   LIG    1       -6.173  15.899   0.779  0.00  0.00    -0.050 A 
ATOM     27  S   LIG    1       -6.392  17.487   1.501  0.00  0.00    +0.110 S 
ATOM     28  C   LIG    1       -7.125  16.770   2.930  0.00  0.00    -0.040 A 
ATOM     29  C   LIG    1       -7.167  15.444   2.793  0.00  0.00    +0.010 A 
ENDBRANCH  24  25
ENDBRANCH  22  24
ENDBRANCH  18  22
ENDBRANCH   1  20
TORSDOF 7
