REMARK  Name = ZINCkj000005eFMX.0
REMARK                            x       y       z     vdW  Elec       q    Type
REMARK                         _______ _______ _______ _____ _____    ______ ____
ROOT
ATOM      1  N   LIG    1       -1.190   3.529   0.137  0.00  0.00    -0.680 NA
ATOM      2  H   LIG    1       -0.345   4.005   0.136  0.00  0.00    +0.430 HD
ENDROOT
BRANCH   1   3
ATOM      3  C   LIG    1       -2.448   4.268   0.265  0.00  0.00    +0.350 C 
BRANCH   3   9
ATOM      4  C   LIG    1       -1.871   6.482  -0.760  0.00  0.00    +0.150 A 
ATOM      5  C   LIG    1       -1.608   7.840  -0.654  0.00  0.00    -0.070 A 
ATOM      6  C   LIG    1       -1.619   8.449   0.586  0.00  0.00    +0.090 A 
ATOM      7  C   LIG    1       -1.897   7.708   1.719  0.00  0.00    -0.010 A 
ATOM      8  C   LIG    1       -2.166   6.356   1.615  0.00  0.00    +0.090 A 
ATOM      9  C   LIG    1       -2.156   5.742   0.378  0.00  0.00    -0.170 A 
BRANCH   4  10
ATOM     10  O   LIG    1       -1.855   5.879  -1.978  0.00  0.00    -0.310 OA
BRANCH  10  11
ATOM     11  C   LIG    1       -1.554   6.703  -3.106  0.00  0.00    +0.240 C 
BRANCH  11  13
ATOM     12  C   LIG    1       -2.190   6.315  -5.431  0.00  0.00    +0.060 C 
ATOM     13  C   LIG    1       -1.581   5.868  -4.360  0.00  0.00    -0.050 C 
ENDBRANCH  11  13
ENDBRANCH  10  11
ENDBRANCH   4  10
ENDBRANCH   3   9
ENDBRANCH   1   3
BRANCH   1  14
ATOM     14  C   LIG    1       -1.206   2.159   0.019  0.00  0.00    +0.740 C 
BRANCH  14  15
ATOM     15  N   LIG    1       -0.025   1.456   0.009  0.00  0.00    -0.620 NA
ATOM     16  C   LIG    1        0.133   0.253  -0.823  0.00  0.00    +0.270 C 
ATOM     17  C   LIG    1        1.427   0.392  -1.635  0.00  0.00    +0.240 C 
ATOM     18  O   LIG    1        2.507   0.698  -0.749  0.00  0.00    -0.360 OA
ATOM     19  C   LIG    1        2.362   1.941  -0.058  0.00  0.00    +0.220 C 
ATOM     20  C   LIG    1        1.117   1.881   0.834  0.00  0.00    +0.290 C 
ENDBRANCH  14  15
BRANCH  14  21
ATOM     21  N   LIG    1       -2.341   1.527  -0.082  0.00  0.00    -0.770 NA
ATOM     22  H   LIG    1       -2.358   0.557  -0.088  0.00  0.00    +0.440 HD
ATOM     23  H   LIG    1       -3.170   2.026  -0.152  0.00  0.00    +0.440 HD
ENDBRANCH  14  21
ENDBRANCH   1  14
TORSDOF 8
