REMARK  Name = ZINCpk00000KfKku.0
REMARK                            x       y       z     vdW  Elec       q    Type
REMARK                         _______ _______ _______ _____ _____    ______ ____
ROOT
ATOM      1  C   LIG    1        5.864  -1.600  -3.060  0.00  0.00    +0.300 C 
ATOM      2  C   LIG    1        7.222  -2.305  -2.865  0.00  0.00    +0.040 C 
ATOM      3  C   LIG    1        7.101  -2.900  -1.437  0.00  0.00    +0.040 C 
ATOM      4  C   LIG    1        6.281  -1.804  -0.712  0.00  0.00    +0.250 C 
ATOM      5  N   LIG    1        5.321  -1.321  -1.722  0.00  0.00    -0.610 N 
ATOM      6  C   LIG    1        4.138  -0.729  -1.462  0.00  0.00    +0.510 C 
ATOM      7  O   LIG    1        3.425  -0.372  -2.375  0.00  0.00    -0.510 OA
ENDROOT
BRANCH   1  11
ATOM      8  C   LIG    1        5.987   1.828  -6.714  0.00  0.00    +0.360 C 
ATOM      9  N   LIG    1        6.114   1.180  -5.407  0.00  0.00    -0.370 N 
ATOM     10  C   LIG    1        5.804  -0.102  -5.122  0.00  0.00    +0.240 A 
ATOM     11  C   LIG    1        6.063  -0.308  -3.811  0.00  0.00    -0.240 A 
ATOM     12  C   LIG    1        6.543   0.890  -3.273  0.00  0.00    +0.240 A 
ATOM     13  N   LIG    1        6.580   1.782  -4.230  0.00  0.00    -0.290 NA
ENDBRANCH   1  11
BRANCH   6  14
ATOM     14  C   LIG    1        3.703  -0.511  -0.035  0.00  0.00    +0.360 C 
BRANCH  14  15
ATOM     15  N   LIG    1        2.393   0.145  -0.020  0.00  0.00    -0.320 N 
ATOM     16  N   LIG    1        2.344   1.425  -0.013  0.00  0.00    -0.180 NA
ATOM     17  C   LIG    1        1.245   2.121   0.002  0.00  0.00    +0.150 A 
ATOM     18  C   LIG    1       -0.018   1.469   0.010  0.00  0.00    +0.390 A 
ATOM     19  C   LIG    1        0.002  -0.004   0.002  0.00  0.00    -0.200 A 
ATOM     20  C   LIG    1       -1.163  -0.766   0.009  0.00  0.00    +0.120 A 
ATOM     21  C   LIG    1       -1.076  -2.131   0.000  0.00  0.00    -0.020 A 
ATOM     22  C   LIG    1        0.163  -2.759  -0.015  0.00  0.00    +0.090 A 
ATOM     23  C   LIG    1        1.328  -2.024  -0.021  0.00  0.00    -0.040 A 
ATOM     24  O   LIG    1       -1.064   2.096   0.019  0.00  0.00    -0.470 OA
ATOM     25  C   LIG    1        1.263  -0.634  -0.013  0.00  0.00    +0.160 A 
ENDBRANCH  14  15
ENDBRANCH   6  14
TORSDOF 3
