REMARK  Name = ZINCrH000004tSG6.0
REMARK                            x       y       z     vdW  Elec       q    Type
REMARK                         _______ _______ _______ _____ _____    ______ ____
ROOT
ATOM      1  O   LIG    1        1.671  -4.491   1.502  0.00  0.00    -0.530 OA
ATOM      2  C   LIG    1        1.103  -5.067   0.599  0.00  0.00    +0.520 C 
ATOM      3  N   LIG    1        1.374  -6.364   0.352  0.00  0.00    -0.730 N 
ATOM      4  H   LIG    1        0.920  -6.826  -0.370  0.00  0.00    +0.400 HD
ENDROOT
BRANCH   3   5
ATOM      5  C   LIG    1        2.353  -7.078   1.176  0.00  0.00    +0.260 C 
BRANCH   5   6
ATOM      6  C   LIG    1        2.471  -8.524   0.690  0.00  0.00    +0.090 C 
BRANCH   6   7
ATOM      7  C   LIG    1        3.478  -9.258   1.538  0.00  0.00    -0.060 A 
ATOM      8  C   LIG    1        4.771  -9.362   1.126  0.00  0.00    +0.030 A 
ATOM      9  C   LIG    1        5.720 -10.032   1.897  0.00  0.00    +0.020 A 
ATOM     10  C   LIG    1        5.376 -10.610   3.080  0.00  0.00    +0.030 A 
ATOM     11  C   LIG    1        4.050 -10.527   3.534  0.00  0.00    -0.100 A 
ATOM     12  C   LIG    1        3.654 -11.111   4.752  0.00  0.00    +0.080 A 
ATOM     13  C   LIG    1        2.346 -10.991   5.129  0.00  0.00    -0.040 A 
ATOM     14  C   LIG    1        1.448 -10.304   4.316  0.00  0.00    +0.290 A 
ATOM     15  N   LIG    1        1.821  -9.761   3.182  0.00  0.00    -0.470 NA
ATOM     16  C   LIG    1        3.084  -9.842   2.755  0.00  0.00    +0.130 A 
ENDBRANCH   6   7
ENDBRANCH   5   6
ENDBRANCH   3   5
BRANCH   2  17
ATOM     17  C   LIG    1        0.097  -4.333  -0.249  0.00  0.00    +0.070 C 
BRANCH  17  18
ATOM     18  C   LIG    1       -0.022  -2.888   0.237  0.00  0.00    +0.000 C 
ATOM     19  C   LIG    1       -1.133  -2.167  -0.537  0.00  0.00    +0.040 C 
ATOM     20  C   LIG    1       -1.302  -0.754   0.016  0.00  0.00    +0.090 C 
ATOM     21  C   LIG    1        0.002  -0.004   0.002  0.00  0.00    -0.030 A 
ATOM     22  C   LIG    1       -0.017   1.378   0.010  0.00  0.00    -0.010 A 
ATOM     23  C   LIG    1        1.167   2.094   0.002  0.00  0.00    +0.040 A 
ATOM     24  C   LIG    1        2.385   1.436  -0.011  0.00  0.00    -0.010 A 
ATOM     25  C   LIG    1        2.423   0.057  -0.020  0.00  0.00    +0.070 A 
ATOM     26  C   LIG    1        1.229  -0.670  -0.015  0.00  0.00    -0.160 A 
ATOM     27  C   LIG    1        1.271  -2.145  -0.031  0.00  0.00    +0.400 C 
ATOM     28  O   LIG    1        2.303  -2.742  -0.250  0.00  0.00    -0.430 OA
ENDBRANCH  17  18
ENDBRANCH   2  17
TORSDOF 5
