REMARK  Name = ZINCvU000000083j.1
REMARK                            x       y       z     vdW  Elec       q    Type
REMARK                         _______ _______ _______ _____ _____    ______ ____
ROOT
ATOM      1  N   LIG    1       -0.240  -2.823  -0.090  0.00  0.00    -0.460 N 
ATOM      2  C   LIG    1        0.468  -2.996   1.044  0.00  0.00    +0.530 C 
ATOM      3  O   LIG    1        1.585  -3.467   0.994  0.00  0.00    -0.460 OA
ENDROOT
BRANCH   2   4
ATOM      4  C   LIG    1       -0.127  -2.605   2.372  0.00  0.00    +0.170 C 
ATOM      5  C   LIG    1       -0.096  -1.078   2.523  0.00  0.00    +0.260 C 
ATOM      6  O   LIG    1       -0.654  -0.743   3.798  0.00  0.00    -0.290 OA
ATOM      7  C   LIG    1       -0.222  -1.468   4.865  0.00  0.00    +0.050 A 
ATOM      8  C   LIG    1       -0.432  -0.983   6.147  0.00  0.00    +0.030 A 
ATOM      9  C   LIG    1       -0.001  -1.710   7.242  0.00  0.00    +0.030 A 
ATOM     10  C   LIG    1        0.639  -2.922   7.061  0.00  0.00    +0.030 A 
ATOM     11  C   LIG    1        0.853  -3.410   5.785  0.00  0.00    +0.030 A 
ATOM     12  C   LIG    1        0.424  -2.685   4.683  0.00  0.00    +0.050 A 
ATOM     13  O   LIG    1        0.644  -3.177   3.433  0.00  0.00    -0.280 OA
ENDBRANCH   2   4
BRANCH   1  14
ATOM     14  C   LIG    1        0.269  -3.268  -1.301  0.00  0.00    +0.320 A 
ATOM     15  N   LIG    1       -0.273  -3.053  -2.449  0.00  0.00    -0.490 NA
ATOM     16  C   LIG    1        0.344  -3.547  -3.540  0.00  0.00    +0.110 A 
ATOM     17  C   LIG    1       -0.040  -3.445  -4.894  0.00  0.00    +0.060 A 
ATOM     18  C   LIG    1        0.721  -4.025  -5.878  0.00  0.00    +0.040 A 
ATOM     19  C   LIG    1        1.879  -4.718  -5.558  0.00  0.00    +0.030 A 
ATOM     20  C   LIG    1        2.275  -4.830  -4.243  0.00  0.00    +0.060 A 
ATOM     21  C   LIG    1        1.514  -4.248  -3.232  0.00  0.00    -0.210 A 
ATOM     22  S   LIG    1        1.741  -4.210  -1.485  0.00  0.00    +0.170 S 
ENDBRANCH   1  14
BRANCH   1  28
ATOM     23  C   LIG    1       -1.597  -0.827  -0.290  0.00  0.00    +0.150 A 
ATOM     24  C   LIG    1       -2.837  -0.211  -0.250  0.00  0.00    -0.060 A 
ATOM     25  C   LIG    1       -3.968  -0.953   0.040  0.00  0.00    +0.090 A 
ATOM     26  C   LIG    1       -3.865  -2.308   0.290  0.00  0.00    +0.000 A 
ATOM     27  C   LIG    1       -2.631  -2.930   0.252  0.00  0.00    +0.080 A 
ATOM     28  C   LIG    1       -1.493  -2.194  -0.044  0.00  0.00    +0.070 A 
BRANCH  23  29
ATOM     29  O   LIG    1       -0.484  -0.099  -0.575  0.00  0.00    -0.310 OA
BRANCH  29  31
ATOM     30  C   LIG    1        0.686   1.944  -1.121  0.00  0.00    +0.070 C 
ATOM     31  C   LIG    1       -0.667   1.297  -0.822  0.00  0.00    +0.190 C 
ENDBRANCH  29  31
ENDBRANCH  23  29
ENDBRANCH   1  28
TORSDOF 5
