REMARK  Name = ZINCvU000000083j.0
REMARK                            x       y       z     vdW  Elec       q    Type
REMARK                         _______ _______ _______ _____ _____    ______ ____
ROOT
ATOM      1  N   LIG    1        1.242   0.172   4.423  0.00  0.00    -0.460 N 
ATOM      2  C   LIG    1        1.118  -1.114   4.807  0.00  0.00    +0.530 C 
ATOM      3  O   LIG    1        2.101  -1.749   5.125  0.00  0.00    -0.430 OA
ENDROOT
BRANCH   2   4
ATOM      4  C   LIG    1       -0.242  -1.762   4.842  0.00  0.00    +0.160 C 
ATOM      5  C   LIG    1       -1.019  -1.270   6.070  0.00  0.00    +0.250 C 
ATOM      6  O   LIG    1       -2.298  -1.914   6.079  0.00  0.00    -0.290 OA
ATOM      7  C   LIG    1       -2.308  -3.256   5.851  0.00  0.00    +0.040 A 
ATOM      8  C   LIG    1       -3.430  -3.996   6.194  0.00  0.00    +0.030 A 
ATOM      9  C   LIG    1       -3.456  -5.359   5.966  0.00  0.00    +0.030 A 
ATOM     10  C   LIG    1       -2.366  -5.988   5.395  0.00  0.00    +0.030 A 
ATOM     11  C   LIG    1       -1.245  -5.256   5.052  0.00  0.00    +0.030 A 
ATOM     12  C   LIG    1       -1.211  -3.889   5.279  0.00  0.00    +0.050 A 
ATOM     13  O   LIG    1       -0.097  -3.183   4.942  0.00  0.00    -0.280 OA
ENDBRANCH   2   4
BRANCH   1  14
ATOM     14  C   LIG    1        2.501   0.739   4.295  0.00  0.00    +0.340 A 
ATOM     15  N   LIG    1        3.611   0.124   4.517  0.00  0.00    -0.470 NA
ATOM     16  C   LIG    1        4.758   0.811   4.348  0.00  0.00    +0.110 A 
ATOM     17  C   LIG    1        6.086   0.369   4.526  0.00  0.00    +0.070 A 
ATOM     18  C   LIG    1        7.137   1.222   4.304  0.00  0.00    +0.040 A 
ATOM     19  C   LIG    1        6.913   2.530   3.901  0.00  0.00    +0.030 A 
ATOM     20  C   LIG    1        5.625   2.983   3.722  0.00  0.00    +0.060 A 
ATOM     21  C   LIG    1        4.545   2.132   3.942  0.00  0.00    -0.180 A 
ATOM     22  S   LIG    1        2.809   2.397   3.796  0.00  0.00    +0.080 S 
ENDBRANCH   1  14
BRANCH   1  28
ATOM     23  C   LIG    1       -0.509   0.869   2.902  0.00  0.00    +0.150 A 
ATOM     24  C   LIG    1       -1.643   1.623   2.643  0.00  0.00    -0.060 A 
ATOM     25  C   LIG    1       -2.166   2.444   3.625  0.00  0.00    +0.090 A 
ATOM     26  C   LIG    1       -1.560   2.517   4.866  0.00  0.00    +0.000 A 
ATOM     27  C   LIG    1       -0.429   1.768   5.132  0.00  0.00    +0.070 A 
ATOM     28  C   LIG    1        0.098   0.937   4.154  0.00  0.00    +0.040 A 
BRANCH  23  29
ATOM     29  O   LIG    1        0.006   0.061   1.938  0.00  0.00    -0.310 OA
BRANCH  29  31
ATOM     30  C   LIG    1        0.049  -0.921  -0.270  0.00  0.00    +0.070 C 
ATOM     31  C   LIG    1       -0.672   0.037   0.680  0.00  0.00    +0.190 C 
ENDBRANCH  29  31
ENDBRANCH  23  29
ENDBRANCH   1  28
TORSDOF 5
