REMARK  Name = ZINCnE000001IU1E.2
REMARK                            x       y       z     vdW  Elec       q    Type
REMARK                         _______ _______ _______ _____ _____    ______ ____
ROOT
ATOM      1  C   LIG    1       -2.083   5.042  -2.020  0.00  0.00    +0.200 C 
ATOM      2  N   LIG    1       -2.993   4.115  -1.334  0.00  0.00    -0.530 NA
ENDROOT
BRANCH   2   3
ATOM      3  C   LIG    1       -4.374   4.615  -1.365  0.00  0.00    +0.240 C 
BRANCH   3   4
ATOM      4  C   LIG    1       -4.874   4.622  -2.787  0.00  0.00    -0.160 A 
ATOM      5  C   LIG    1       -4.705   5.743  -3.581  0.00  0.00    +0.230 A 
ATOM      6  N   LIG    1       -5.132   5.764  -4.829  0.00  0.00    -0.500 NA
ATOM      7  C   LIG    1       -5.745   4.734  -5.373  0.00  0.00    +0.290 A 
ATOM      8  C   LIG    1       -5.960   3.566  -4.636  0.00  0.00    -0.180 A 
ATOM      9  C   LIG    1       -5.512   3.512  -3.309  0.00  0.00    +0.120 A 
BRANCH   8  10
ATOM     10  C   LIG    1       -6.646   2.411  -5.245  0.00  0.00    +0.530 C 
ATOM     11  O   LIG    1       -7.032   2.470  -6.404  0.00  0.00    -0.680 OA
ATOM     12  O   LIG    1       -6.828   1.394  -4.591  0.00  0.00    -0.680 OA
ENDBRANCH   8  10
ENDBRANCH   3   4
ENDBRANCH   2   3
BRANCH   2  13
ATOM     13  C   LIG    1       -2.553   3.868   0.045  0.00  0.00    +0.230 C 
BRANCH  13  14
ATOM     14  C   LIG    1       -1.238   3.133   0.029  0.00  0.00    -0.070 A 
ATOM     15  C   LIG    1       -1.219   1.751   0.017  0.00  0.00    +0.080 A 
ATOM     16  C   LIG    1       -0.013   1.076   0.008  0.00  0.00    +0.020 A 
ATOM     17  C   LIG    1        1.175   1.783   0.000  0.00  0.00    +0.060 A 
ATOM     18  C   LIG    1        1.156   3.166   0.008  0.00  0.00    -0.190 A 
ATOM     19  C   LIG    1       -0.050   3.840   0.022  0.00  0.00    +0.070 A 
BRANCH  18  20
ATOM     20  C   LIG    1        2.451   3.937   0.000  0.00  0.00    +0.510 C 
ATOM     21  F   LIG    1        2.525   4.736   1.146  0.00  0.00    -0.180 F 
ATOM     22  F   LIG    1        2.503   4.748  -1.138  0.00  0.00    -0.180 F 
ATOM     23  F   LIG    1        3.526   3.042  -0.014  0.00  0.00    -0.180 F 
ENDBRANCH  18  20
ENDBRANCH  13  14
ENDBRANCH   2  13
TORSDOF 6
