REMARK  Name = ZINCrH000004uOKp.0
REMARK                            x       y       z     vdW  Elec       q    Type
REMARK                         _______ _______ _______ _____ _____    ______ ____
ROOT
ATOM      1  O   LIG    1        0.002  -0.004   0.002  0.00  0.00    -0.540 OA
ATOM      2  C   LIG    1       -0.014   1.212   0.009  0.00  0.00    +0.560 C 
ATOM      3  N   LIG    1        1.143   1.901   0.001  0.00  0.00    -0.710 N 
ATOM      4  H   LIG    1        1.130   2.871   0.007  0.00  0.00    +0.400 HD
ENDROOT
BRANCH   2   5
ATOM      5  C   LIG    1       -1.304   1.933   0.019  0.00  0.00    -0.140 A 
ATOM      6  C   LIG    1       -1.323   3.329   0.032  0.00  0.00    +0.050 A 
ATOM      7  C   LIG    1       -2.525   4.001   0.035  0.00  0.00    +0.010 A 
ATOM      8  C   LIG    1       -3.723   3.286   0.037  0.00  0.00    -0.020 A 
ATOM      9  C   LIG    1       -3.705   1.891   0.030  0.00  0.00    +0.010 A 
ATOM     10  C   LIG    1       -2.504   1.218   0.021  0.00  0.00    +0.090 A 
BRANCH   8  11
ATOM     11  C   LIG    1       -5.017   4.010   0.048  0.00  0.00    -0.060 A 
ATOM     12  C   LIG    1       -6.217   3.299   0.043  0.00  0.00    +0.020 A 
ATOM     13  C   LIG    1       -7.418   3.978   0.058  0.00  0.00    +0.010 A 
ATOM     14  C   LIG    1       -7.434   5.362   0.065  0.00  0.00    +0.010 A 
ATOM     15  C   LIG    1       -6.247   6.072   0.064  0.00  0.00    +0.010 A 
ATOM     16  C   LIG    1       -5.039   5.404   0.055  0.00  0.00    +0.020 A 
ENDBRANCH   8  11
ENDBRANCH   2   5
BRANCH   3  17
ATOM     17  C   LIG    1        2.422   1.186  -0.015  0.00  0.00    +0.250 C 
ATOM     18  C   LIG    1        2.819   0.820   1.417  0.00  0.00    +0.010 C 
ATOM     19  C   LIG    1        4.155   0.073   1.400  0.00  0.00    +0.010 C 
ATOM     20  C   LIG    1        5.232   0.968   0.785  0.00  0.00    +0.010 C 
ATOM     21  C   LIG    1        4.835   1.335  -0.647  0.00  0.00    -0.010 C 
ATOM     22  C   LIG    1        3.499   2.081  -0.630  0.00  0.00    +0.170 C 
BRANCH  22  23
ATOM     23  N   LIG    1        3.118   2.433  -2.004  0.00  0.00    -0.530 NA
ATOM     24  C   LIG    1        3.006   1.232  -2.844  0.00  0.00    +0.150 C 
ATOM     25  C   LIG    1        2.550   1.637  -4.248  0.00  0.00    +0.220 C 
ATOM     26  O   LIG    1        3.470   2.590  -4.786  0.00  0.00    -0.380 OA
ATOM     27  C   LIG    1        3.604   3.773  -3.994  0.00  0.00    +0.220 C 
ATOM     28  C   LIG    1        4.071   3.389  -2.587  0.00  0.00    +0.150 C 
ENDBRANCH  22  23
ENDBRANCH   3  17
TORSDOF 4
