REMARK  Name = ZINCrH000004mkKH.0
REMARK                            x       y       z     vdW  Elec       q    Type
REMARK                         _______ _______ _______ _____ _____    ______ ____
ROOT
ATOM      1  C   LIG    1       -0.038   7.286   3.165  0.00  0.00    +0.110 A 
ATOM      2  C   LIG    1       -1.212   6.622   2.861  0.00  0.00    -0.030 A 
ATOM      3  C   LIG    1       -1.232   5.629   1.889  0.00  0.00    -0.060 A 
ATOM      4  C   LIG    1       -0.073   5.310   1.217  0.00  0.00    -0.100 A 
ATOM      5  C   LIG    1       -0.033   4.263   0.137  0.00  0.00    +0.340 C 
ATOM      6  N   LIG    1       -1.288   3.504   0.129  0.00  0.00    -0.600 N 
ATOM      7  C   LIG    1       -2.540   4.269   0.252  0.00  0.00    +0.290 C 
ATOM      8  C   LIG    1       -1.294   2.161   0.020  0.00  0.00    +0.570 C 
ATOM      9  O   LIG    1       -2.349   1.562  -0.057  0.00  0.00    -0.520 OA
ATOM     10  C   LIG    1        1.110   5.970   1.522  0.00  0.00    -0.030 A 
ATOM     11  C   LIG    1       -2.546   4.943   1.622  0.00  0.00    +0.080 C 
ATOM     12  C   LIG    1        1.135   6.956   2.491  0.00  0.00    +0.100 A 
ENDROOT
BRANCH   8  13
ATOM     13  C   LIG    1       -0.017   1.415  -0.006  0.00  0.00    -0.060 A 
ATOM     14  C   LIG    1        1.004   1.770  -0.878  0.00  0.00    +0.000 A 
ATOM     15  C   LIG    1        2.191   1.042  -0.880  0.00  0.00    +0.160 A 
ATOM     16  N   LIG    1        2.380   0.024  -0.078  0.00  0.00    -0.460 NA
ATOM     17  C   LIG    1        1.443  -0.374   0.787  0.00  0.00    +0.140 A 
ATOM     18  C   LIG    1        1.665  -1.471   1.640  0.00  0.00    +0.050 A 
ATOM     19  C   LIG    1        0.693  -1.855   2.511  0.00  0.00    +0.040 A 
ATOM     20  C   LIG    1       -0.524  -1.179   2.575  0.00  0.00    +0.020 A 
ATOM     21  C   LIG    1       -0.774  -0.113   1.764  0.00  0.00    +0.050 A 
ATOM     22  C   LIG    1        3.291   1.437  -1.832  0.00  0.00    +0.130 C 
ATOM     23  C   LIG    1        0.204   0.310   0.855  0.00  0.00    -0.070 A 
ENDBRANCH   8  13
BRANCH   1  25
ATOM     24  C   LIG    1       -1.270   8.542   4.765  0.00  0.00    +0.250 C 
ATOM     25  O   LIG    1       -0.029   8.258   4.117  0.00  0.00    -0.300 OA
ENDBRANCH   1  25
BRANCH  12  26
ATOM     26  O   LIG    1        2.297   7.598   2.784  0.00  0.00    -0.300 OA
ATOM     27  C   LIG    1        3.458   7.205   2.051  0.00  0.00    +0.240 C 
ENDBRANCH  12  26
TORSDOF 3
