REMARK  Name = ZINCqH0000036cZo.0
REMARK                            x       y       z     vdW  Elec       q    Type
REMARK                         _______ _______ _______ _____ _____    ______ ____
ROOT
ATOM      1  N   LIG    1        0.399  -0.729   2.443  0.00  0.00    -0.630 N 
ATOM      2  H   LIG    1       -0.483  -0.392   2.664  0.00  0.00    +0.430 HD
ATOM      3  C   LIG    1        0.862  -0.628   1.182  0.00  0.00    +0.510 C 
ATOM      4  O   LIG    1        1.998  -0.967   0.924  0.00  0.00    -0.460 OA
ENDROOT
BRANCH   1  10
ATOM      5  C   LIG    1        4.018  -3.365   6.683  0.00  0.00    +0.140 A 
ATOM      6  C   LIG    1        4.778  -3.420   5.519  0.00  0.00    -0.040 A 
ATOM      7  C   LIG    1        4.286  -2.917   4.341  0.00  0.00    +0.120 A 
ATOM      8  C   LIG    1        3.002  -2.335   4.291  0.00  0.00    +0.070 A 
ATOM      9  N   LIG    1        2.360  -1.798   3.233  0.00  0.00    -0.460 NA
ATOM     10  C   LIG    1        1.182  -1.316   3.425  0.00  0.00    +0.320 A 
ATOM     11  S   LIG    1        0.705  -1.512   5.105  0.00  0.00    +0.080 S 
ATOM     12  C   LIG    1        2.247  -2.285   5.467  0.00  0.00    -0.140 A 
ATOM     13  C   LIG    1        2.757  -2.801   6.656  0.00  0.00    +0.030 A 
BRANCH   5  15
ATOM     14  C   LIG    1        5.824  -4.436   7.798  0.00  0.00    +0.240 C 
ATOM     15  O   LIG    1        4.514  -3.867   7.845  0.00  0.00    -0.310 OA
ENDBRANCH   5  15
ENDBRANCH   1  10
BRANCH   3  16
ATOM     16  C   LIG    1       -0.031  -0.095   0.091  0.00  0.00    +0.260 C 
BRANCH  16  17
ATOM     17  N   LIG    1        0.372  -0.670  -1.195  0.00  0.00    -0.710 N 
ATOM     18  H   LIG    1        1.282  -0.981  -1.323  0.00  0.00    +0.410 HD
ATOM     19  C   LIG    1       -0.521  -0.767  -2.199  0.00  0.00    +0.600 C 
ATOM     20  O   LIG    1       -1.663  -0.377  -2.038  0.00  0.00    -0.520 OA
BRANCH  19  21
ATOM     21  C   LIG    1       -0.118  -1.342  -3.486  0.00  0.00    -0.280 A 
ATOM     22  C   LIG    1       -0.929  -1.493  -4.575  0.00  0.00    +0.110 A 
ATOM     23  C   LIG    1       -0.291  -2.062  -5.652  0.00  0.00    +0.000 A 
ATOM     24  C   LIG    1        0.997  -2.366  -5.454  0.00  0.00    -0.050 A 
ATOM     25  S   LIG    1        1.488  -1.940  -3.877  0.00  0.00    +0.210 S 
ENDBRANCH  19  21
ENDBRANCH  16  17
BRANCH  16  26
ATOM     26  C   LIG    1        0.093   1.429   0.030  0.00  0.00    -0.020 C 
ATOM     27  C   LIG    1       -0.376   2.032   1.355  0.00  0.00    +0.030 C 
ATOM     28  C   LIG    1       -0.774   1.965  -1.110  0.00  0.00    +0.040 C 
ENDBRANCH  16  26
ENDBRANCH   3  16
TORSDOF 6
