REMARK  Name = ZINCpe000000YXKg.2
REMARK                            x       y       z     vdW  Elec       q    Type
REMARK                         _______ _______ _______ _____ _____    ______ ____
ROOT
ATOM      1  O   LIG    1       -0.061   3.380  -3.159  0.00  0.00    -0.520 OA
ATOM      2  C   LIG    1       -0.519   3.859  -2.143  0.00  0.00    +0.520 C 
ATOM      3  N   LIG    1       -0.893   3.055  -1.129  0.00  0.00    -0.620 N 
ATOM      4  C   LIG    1       -0.755   1.594  -1.233  0.00  0.00    +0.310 C 
ATOM      5  C   LIG    1       -0.013   1.086   0.008  0.00  0.00    +0.220 C 
ATOM      6  N   LIG    1       -0.701   1.560   1.216  0.00  0.00    -0.430 N 
ATOM      7  C   LIG    1       -0.681   3.026   1.300  0.00  0.00    +0.210 C 
ATOM      8  C   LIG    1       -1.450   3.614   0.112  0.00  0.00    +0.300 C 
ENDROOT
BRANCH   6   9
ATOM      9  C   LIG    1       -0.152   0.985   2.364  0.00  0.00    +0.370 A 
ATOM     10  N   LIG    1       -0.539   1.199   3.604  0.00  0.00    -0.300 NA
ATOM     11  N   LIG    1        0.298   0.411   4.411  0.00  0.00    -0.290 N 
ATOM     12  H   LIG    1        0.270   0.344   5.378  0.00  0.00    +0.470 HD
ATOM     13  N   LIG    1        1.110  -0.208   3.623  0.00  0.00    +0.030 NA
ATOM     14  N   LIG    1        0.857   0.114   2.404  0.00  0.00    -0.320 NA
ENDBRANCH   6   9
BRANCH   2  15
ATOM     15  C   LIG    1       -0.670   5.353  -2.015  0.00  0.00    +0.120 C 
BRANCH  15  16
ATOM     16  C   LIG    1       -0.182   6.017  -3.278  0.00  0.00    -0.080 A 
ATOM     17  C   LIG    1        1.142   6.397  -3.390  0.00  0.00    +0.060 A 
ATOM     18  C   LIG    1        1.593   7.001  -4.547  0.00  0.00    -0.010 A 
ATOM     19  C   LIG    1        0.712   7.237  -5.594  0.00  0.00    +0.140 A 
ATOM     20  C   LIG    1       -0.618   6.858  -5.476  0.00  0.00    -0.010 A 
ATOM     21  C   LIG    1       -1.062   6.249  -4.319  0.00  0.00    +0.060 A 
BRANCH  19  22
ATOM     22  N   LIG    1        1.165   7.855  -6.768  0.00  0.00    -0.400 N 
ATOM     23  C   LIG    1        0.403   8.136  -7.866  0.00  0.00    +0.140 A 
ATOM     24  C   LIG    1        1.190   8.733  -8.784  0.00  0.00    -0.050 A 
ATOM     25  C   LIG    1        2.487   8.816  -8.239  0.00  0.00    -0.050 A 
ATOM     26  C   LIG    1        2.444   8.273  -7.005  0.00  0.00    +0.140 A 
ENDBRANCH  19  22
ENDBRANCH  15  16
ENDBRANCH   2  15
TORSDOF 4
