REMARK  Name = ZINCqH0000008luO.0
REMARK                            x       y       z     vdW  Elec       q    Type
REMARK                         _______ _______ _______ _____ _____    ______ ____
ROOT
ATOM      1  C   LIG    1        1.950   9.629   4.970  0.00  0.00    +0.040 C 
ATOM      2  C   LIG    1        2.813   9.559   3.708  0.00  0.00    +0.280 C 
ENDROOT
BRANCH   2   3
ATOM      3  C   LIG    1        3.368  10.927   3.403  0.00  0.00    -0.080 A 
ATOM      4  C   LIG    1        2.577  11.864   2.763  0.00  0.00    +0.020 A 
ATOM      5  C   LIG    1        3.079  13.119   2.485  0.00  0.00    +0.030 A 
ATOM      6  C   LIG    1        4.387  13.439   2.841  0.00  0.00    -0.040 A 
ATOM      7  C   LIG    1        5.181  12.489   3.481  0.00  0.00    +0.030 A 
ATOM      8  C   LIG    1        4.668  11.238   3.759  0.00  0.00    +0.030 A 
BRANCH   6   9
ATOM      9  C   LIG    1        4.934  14.785   2.539  0.00  0.00    -0.150 A 
ATOM     10  C   LIG    1        6.242  15.125   2.894  0.00  0.00    +0.330 A 
ATOM     11  N   LIG    1        6.690  16.334   2.602  0.00  0.00    -0.510 NA
ATOM     12  C   LIG    1        5.919  17.215   1.996  0.00  0.00    +0.490 A 
ATOM     13  N   LIG    1        4.678  16.936   1.649  0.00  0.00    -0.510 NA
ATOM     14  C   LIG    1        4.152  15.749   1.898  0.00  0.00    +0.330 A 
ENDBRANCH   6   9
ENDBRANCH   2   3
BRANCH   2  15
ATOM     15  N   LIG    1        1.997   9.101   2.582  0.00  0.00    -0.730 N 
ATOM     16  H   LIG    1        1.587   9.746   1.986  0.00  0.00    +0.400 HD
ATOM     17  C   LIG    1        1.815   7.781   2.374  0.00  0.00    +0.510 C 
ATOM     18  O   LIG    1        2.327   6.974   3.120  0.00  0.00    -0.530 OA
BRANCH  17  19
ATOM     19  C   LIG    1        0.975   7.310   1.216  0.00  0.00    +0.050 C 
BRANCH  19  20
ATOM     20  C   LIG    1        0.930   5.780   1.207  0.00  0.00    +0.050 C 
BRANCH  20  21
ATOM     21  C   LIG    1        0.077   5.302   0.031  0.00  0.00    +0.090 C 
BRANCH  21  22
ATOM     22  C   LIG    1        0.033   3.795   0.023  0.00  0.00    +0.130 A 
ATOM     23  C   LIG    1       -1.188   3.148   0.030  0.00  0.00    -0.040 A 
ATOM     24  C   LIG    1       -1.217   1.761   0.017  0.00  0.00    +0.060 A 
ATOM     25  C   LIG    1       -0.013   1.076   0.008  0.00  0.00    -0.050 A 
ATOM     26  C   LIG    1        1.170   1.792   0.001  0.00  0.00    +0.260 A 
ATOM     27  N   LIG    1        1.160   3.110   0.008  0.00  0.00    -0.480 NA
ENDBRANCH  21  22
ENDBRANCH  20  21
ENDBRANCH  19  20
ENDBRANCH  17  19
ENDBRANCH   2  15
TORSDOF 7
