REMARK  Name = ZINCpe000000X47Z.0
REMARK                            x       y       z     vdW  Elec       q    Type
REMARK                         _______ _______ _______ _____ _____    ______ ____
ROOT
ATOM      1  C   LIG    1       -0.088   1.037  -2.490  0.00  0.00    +0.320 C 
ENDROOT
BRANCH   1   5
ATOM      2  N   LIG    1       -0.880   1.804  -5.998  0.00  0.00    -0.730 N 
ATOM      3  H   LIG    1       -1.607   2.438  -5.898  0.00  0.00    +0.400 HD
ATOM      4  C   LIG    1       -0.296   1.270  -4.907  0.00  0.00    +0.700 C 
ATOM      5  N   LIG    1       -0.723   1.617  -3.676  0.00  0.00    -0.740 N 
ATOM      6  H   LIG    1       -1.450   2.251  -3.576  0.00  0.00    +0.400 HD
ATOM      7  O   LIG    1        0.616   0.475  -5.032  0.00  0.00    -0.570 OA
BRANCH   2  11
ATOM      8  C   LIG    1       -2.308   2.220 -10.397  0.00  0.00    +0.060 C 
ATOM      9  C   LIG    1       -2.159   1.920  -8.904  0.00  0.00    +0.180 C 
ATOM     10  C   LIG    1       -0.827   2.496  -8.374  0.00  0.00    +0.060 C 
ATOM     11  C   LIG    1       -0.416   1.426  -7.335  0.00  0.00    +0.240 C 
ATOM     12  C   LIG    1       -1.119   0.172  -7.807  0.00  0.00    +0.470 C 
ATOM     13  O   LIG    1       -0.853  -0.949  -7.444  0.00  0.00    -0.430 OA
ATOM     14  O   LIG    1       -2.079   0.485  -8.685  0.00  0.00    -0.340 OA
ENDBRANCH   2  11
ENDBRANCH   1   5
BRANCH   1  15
ATOM     15  C   LIG    1       -0.755   1.594  -1.231  0.00  0.00    +0.160 C 
ATOM     16  C   LIG    1       -0.013   1.086   0.008  0.00  0.00    +0.170 C 
ATOM     17  N   LIG    1       -0.703   1.561   1.216  0.00  0.00    -0.530 NA
ATOM     18  C   LIG    1       -2.097   1.094   1.236  0.00  0.00    +0.140 C 
ATOM     19  C   LIG    1       -2.819   1.602  -0.015  0.00  0.00    +0.230 C 
ATOM     20  O   LIG    1       -2.115   1.157  -1.178  0.00  0.00    -0.380 OA
BRANCH  17  21
ATOM     21  C   LIG    1        0.012   1.142   2.429  0.00  0.00    +0.230 C 
BRANCH  21  22
ATOM     22  C   LIG    1       -0.576   1.844   3.626  0.00  0.00    -0.080 A 
ATOM     23  C   LIG    1       -0.065   3.063   4.032  0.00  0.00    +0.020 A 
ATOM     24  C   LIG    1       -0.608   3.709   5.127  0.00  0.00    +0.000 A 
ATOM     25  C   LIG    1       -1.654   3.132   5.822  0.00  0.00    +0.000 A 
ATOM     26  C   LIG    1       -2.160   1.910   5.420  0.00  0.00    +0.000 A 
ATOM     27  C   LIG    1       -1.621   1.266   4.322  0.00  0.00    +0.000 A 
ENDBRANCH  21  22
ENDBRANCH  17  21
ENDBRANCH   1  15
TORSDOF 5
