REMARK  Name = ZINCrD000006Ty2r.1
REMARK                            x       y       z     vdW  Elec       q    Type
REMARK                         _______ _______ _______ _____ _____    ______ ____
ROOT
ATOM      1  O   LIG    1       -1.103   3.377   0.145  0.00  0.00    -0.530 OA
ATOM      2  C   LIG    1       -1.218   2.173   0.020  0.00  0.00    +0.610 C 
ATOM      3  N   LIG    1       -2.443   1.620  -0.078  0.00  0.00    -0.600 N 
ATOM      4  C   LIG    1       -2.612   0.159  -0.093  0.00  0.00    +0.300 C 
ATOM      5  C   LIG    1       -3.662  -0.216   0.964  0.00  0.00    +0.190 C 
ATOM      6  N   LIG    1       -4.890   0.554   0.721  0.00  0.00    -0.490 N 
ATOM      7  C   LIG    1       -4.654   1.995   0.875  0.00  0.00    +0.190 C 
ATOM      8  C   LIG    1       -3.645   2.460  -0.180  0.00  0.00    +0.300 C 
ENDROOT
BRANCH   6   9
ATOM      9  C   LIG    1       -5.925   0.123   1.557  0.00  0.00    +0.100 A 
ATOM     10  C   LIG    1       -6.571   1.029   2.388  0.00  0.00    +0.000 A 
ATOM     11  C   LIG    1       -7.596   0.602   3.209  0.00  0.00    +0.020 A 
ATOM     12  C   LIG    1       -7.973  -0.730   3.212  0.00  0.00    +0.070 A 
ATOM     13  C   LIG    1       -7.327  -1.637   2.388  0.00  0.00    +0.010 A 
ATOM     14  F   LIG    1       -8.973  -1.147   4.019  0.00  0.00    -0.140 F 
ATOM     15  C   LIG    1       -6.304  -1.213   1.562  0.00  0.00    +0.030 A 
ENDBRANCH   6   9
BRANCH   2  16
ATOM     16  C   LIG    1       -0.014   1.317  -0.024  0.00  0.00    -0.010 A 
ATOM     17  N   LIG    1        0.016   0.026  -0.290  0.00  0.00    -0.250 NA
ATOM     18  N   LIG    1        1.224  -0.411  -0.252  0.00  0.00    -0.380 N 
ATOM     19  H   LIG    1        1.488  -1.330  -0.415  0.00  0.00    +0.450 HD
ATOM     20  C   LIG    1        2.079   0.608   0.051  0.00  0.00    +0.060 A 
ATOM     21  C   LIG    1        1.316   1.732   0.203  0.00  0.00    +0.020 A 
BRANCH  20  22
ATOM     22  C   LIG    1        3.549   0.514   0.188  0.00  0.00    -0.040 A 
ATOM     23  C   LIG    1        4.297   1.650   0.498  0.00  0.00    +0.080 A 
ATOM     24  C   LIG    1        5.667   1.556   0.630  0.00  0.00    +0.000 A 
ATOM     25  C   LIG    1        6.301   0.338   0.445  0.00  0.00    +0.110 A 
ATOM     26  C   LIG    1        5.564  -0.792   0.132  0.00  0.00    -0.010 A 
ATOM     27  F   LIG    1        7.644   0.253   0.571  0.00  0.00    -0.130 F 
ATOM     28  C   LIG    1        4.193  -0.710   0.003  0.00  0.00    +0.050 A 
ENDBRANCH  20  22
ENDBRANCH   2  16
TORSDOF 3
