REMARK  Name = ZINCqH0000008fpt.0
REMARK                            x       y       z     vdW  Elec       q    Type
REMARK                         _______ _______ _______ _____ _____    ______ ____
ROOT
ATOM      1  N   LIG    1        7.031   0.746   2.376  0.00  0.00    -0.750 N 
ATOM      2  H   LIG    1        6.906   0.599   1.425  0.00  0.00    +0.400 HD
ATOM      3  C   LIG    1        5.961   0.911   3.178  0.00  0.00    +0.710 C 
ATOM      4  N   LIG    1        4.716   0.772   2.679  0.00  0.00    -0.630 N 
ATOM      5  C   LIG    1        4.507   0.553   1.241  0.00  0.00    +0.270 C 
ATOM      6  C   LIG    1        3.524   1.606   0.720  0.00  0.00    +0.030 C 
ATOM      7  C   LIG    1        2.243   1.561   1.556  0.00  0.00    +0.150 C 
ATOM      8  C   LIG    1        2.572   1.888   3.014  0.00  0.00    +0.000 C 
ATOM      9  C   LIG    1        3.544   0.838   3.562  0.00  0.00    +0.300 C 
ATOM     10  O   LIG    1        6.117   1.186   4.352  0.00  0.00    -0.590 OA
ENDROOT
BRANCH   1  11
ATOM     11  C   LIG    1        8.382   0.789   2.939  0.00  0.00    +0.310 C 
BRANCH  11  13
ATOM     12  C   LIG    1       10.810   0.495   2.429  0.00  0.00    +0.050 C 
ATOM     13  C   LIG    1        9.407   0.575   1.824  0.00  0.00    +0.150 C 
BRANCH  13  14
ATOM     14  O   LIG    1        9.346   1.667   0.905  0.00  0.00    -0.300 OA
BRANCH  14  15
ATOM     15  C   LIG    1        9.761   1.428  -0.367  0.00  0.00    +0.120 A 
ATOM     16  C   LIG    1        9.623   2.408  -1.339  0.00  0.00    +0.020 A 
ATOM     17  C   LIG    1       10.049   2.165  -2.630  0.00  0.00    +0.030 A 
ATOM     18  C   LIG    1       10.606   0.941  -2.957  0.00  0.00    +0.060 A 
ATOM     19  C   LIG    1       10.740  -0.041  -1.990  0.00  0.00    +0.030 A 
ATOM     20  F   LIG    1       11.018   0.703  -4.221  0.00  0.00    -0.140 F 
ATOM     21  C   LIG    1       10.319   0.201  -0.696  0.00  0.00    -0.040 A 
ENDBRANCH  14  15
ENDBRANCH  13  14
ENDBRANCH  11  13
ENDBRANCH   1  11
BRANCH   7  22
ATOM     22  O   LIG    1        1.312   2.521   1.052  0.00  0.00    -0.370 OA
BRANCH  22  23
ATOM     23  C   LIG    1       -0.057   2.157   1.241  0.00  0.00    +0.150 C 
ATOM     24  C   LIG    1       -0.602   2.761   2.559  0.00  0.00    +0.000 C 
ATOM     25  C   LIG    1       -2.132   2.804   2.304  0.00  0.00    +0.010 C 
ATOM     26  C   LIG    1       -2.259   3.195   0.817  0.00  0.00    +0.020 C 
ATOM     27  C   LIG    1       -0.939   2.784   0.141  0.00  0.00    +0.030 C 
ENDBRANCH  22  23
ENDBRANCH   7  22
TORSDOF 6
