REMARK  Name = ZINCAx0000000cF1.0
REMARK                            x       y       z     vdW  Elec       q    Type
REMARK                         _______ _______ _______ _____ _____    ______ ____
ROOT
ATOM      1  C   LIG    1       -2.789   1.862   5.541  0.00  0.00    +0.160 A 
ATOM      2  C   LIG    1       -2.827   0.690   6.282  0.00  0.00    +0.010 A 
ATOM      3  C   LIG    1       -2.658  -0.530   5.657  0.00  0.00    +0.060 A 
ATOM      4  C   LIG    1       -2.454  -0.594   4.289  0.00  0.00    +0.030 A 
ATOM      5  C   LIG    1       -2.418   0.561   3.536  0.00  0.00    +0.080 A 
ATOM      6  C   LIG    1       -2.588   1.801   4.155  0.00  0.00    -0.100 A 
ENDROOT
BRANCH   6   7
ATOM      7  C   LIG    1       -2.551   3.041   3.355  0.00  0.00    +0.580 C 
ATOM      8  N   LIG    1       -1.464   3.331   2.612  0.00  0.00    -0.610 N 
ATOM      9  C   LIG    1       -0.191   2.587   2.572  0.00  0.00    +0.250 C 
ATOM     10  C   LIG    1        0.901   3.583   2.139  0.00  0.00    -0.090 C 
ATOM     11  C   LIG    1        0.159   4.920   1.906  0.00  0.00    +0.030 C 
ATOM     12  C   LIG    1       -1.304   4.462   1.670  0.00  0.00    +0.260 C 
ATOM     13  O   LIG    1       -3.500   3.800   3.366  0.00  0.00    -0.510 OA
BRANCH  11  14
ATOM     14  C   LIG    1        0.711   5.637   0.672  0.00  0.00    -0.010 C 
ATOM     15  C   LIG    1        2.200   5.932   0.875  0.00  0.00    +0.010 C 
ATOM     16  C   LIG    1        2.724   6.721  -0.329  0.00  0.00    +0.190 C 
ATOM     17  O   LIG    1        1.964   7.922  -0.479  0.00  0.00    -0.390 OA
ATOM     18  C   LIG    1        0.572   7.704  -0.719  0.00  0.00    +0.200 C 
ATOM     19  C   LIG    1       -0.039   6.957   0.469  0.00  0.00    -0.010 C 
ENDBRANCH  11  14
BRANCH  10  20
ATOM     20  C   LIG    1        1.929   3.739   3.230  0.00  0.00    +0.500 C 
ATOM     21  O   LIG    1        2.093   4.823   3.763  0.00  0.00    -0.690 OA
ATOM     22  O   LIG    1        2.600   2.782   3.577  0.00  0.00    -0.700 OA
ENDBRANCH  10  20
ENDBRANCH   6   7
BRANCH   1  25
ATOM     23  C   LIG    1       -3.234   4.653   7.671  0.00  0.00    -0.070 A 
ATOM     24  C   LIG    1       -3.109   3.319   7.509  0.00  0.00    +0.230 A 
ATOM     25  N   LIG    1       -2.955   3.098   6.173  0.00  0.00    -0.310 N 
ATOM     26  N   LIG    1       -2.989   4.359   5.559  0.00  0.00    +0.020 NA
ATOM     27  N   LIG    1       -3.161   5.245   6.478  0.00  0.00    -0.240 NA
BRANCH  23  28
ATOM     28  C   LIG    1       -3.426   5.361   8.988  0.00  0.00    +0.160 C 
BRANCH  28  29
ATOM     29  C   LIG    1       -2.338   6.423   9.159  0.00  0.00    +0.260 C 
BRANCH  29  34
ATOM     30  C   LIG    1       -3.075  10.069  13.482  0.00  0.00    +0.050 C 
ATOM     31  C   LIG    1       -2.883   9.470  12.088  0.00  0.00    -0.020 C 
ATOM     32  C   LIG    1       -4.032   8.504  11.783  0.00  0.00    +0.060 C 
ATOM     33  C   LIG    1       -3.794   7.850  10.420  0.00  0.00    +0.250 C 
ATOM     34  N   LIG    1       -2.525   7.112  10.443  0.00  0.00    -0.380 N 
ATOM     35  C   LIG    1       -1.412   8.044  10.662  0.00  0.00    +0.250 C 
ATOM     36  H   LIG    1       -2.546   6.433  11.188  0.00  0.00    +0.420 HD
ATOM     37  C   LIG    1       -1.558   8.704  12.035  0.00  0.00    +0.060 C 
ENDBRANCH  29  34
ENDBRANCH  28  29
ENDBRANCH  23  28
ENDBRANCH   1  25
TORSDOF 7
