REMARK  Name = ZINCnE000004R8Ch.0
REMARK                            x       y       z     vdW  Elec       q    Type
REMARK                         _______ _______ _______ _____ _____    ______ ____
ROOT
ATOM      1  C   LIG    1       -3.709   1.945   0.096  0.00  0.00    +0.050 C 
ATOM      2  C   LIG    1       -3.753   2.770  -1.192  0.00  0.00    +0.020 C 
ENDROOT
BRANCH   1   3
ATOM      3  C   LIG    1       -3.966   2.845   1.277  0.00  0.00    +0.510 C 
ATOM      4  O   LIG    1       -4.961   3.549   1.302  0.00  0.00    -0.700 OA
ATOM      5  O   LIG    1       -3.180   2.868   2.209  0.00  0.00    -0.680 OA
ENDBRANCH   1   3
BRANCH   1   6
ATOM      6  O   LIG    1       -2.421   1.340   0.229  0.00  0.00    -0.290 OA
BRANCH   6  11
ATOM      7  C   LIG    1        1.008   2.506   0.482  0.00  0.00    -0.000 A 
ATOM      8  C   LIG    1        0.771   3.872   0.412  0.00  0.00    -0.110 A 
ATOM      9  C   LIG    1       -0.526   4.328   0.289  0.00  0.00    +0.290 A 
ATOM     10  N   LIG    1       -1.538   3.482   0.236  0.00  0.00    -0.500 NA
ATOM     11  C   LIG    1       -1.352   2.174   0.293  0.00  0.00    +0.360 A 
ATOM     12  C   LIG    1       -0.075   1.645   0.423  0.00  0.00    -0.080 A 
BRANCH   7  14
ATOM     13  C   LIG    1        2.732   1.072  -0.577  0.00  0.00    +0.040 C 
ATOM     14  C   LIG    1        2.410   1.972   0.618  0.00  0.00    -0.030 C 
ATOM     15  C   LIG    1        2.525   1.163   1.911  0.00  0.00    +0.040 C 
ATOM     16  C   LIG    1        3.399   3.140   0.657  0.00  0.00    +0.040 C 
ENDBRANCH   7  14
ENDBRANCH   6  11
ENDBRANCH   1   6
BRANCH   1  17
ATOM     17  C   LIG    1       -4.781   0.856   0.041  0.00  0.00    +0.060 C 
BRANCH  17  18
ATOM     18  C   LIG    1       -4.838   0.127   1.385  0.00  0.00    -0.030 C 
ATOM     19  C   LIG    1       -3.539  -0.657   1.598  0.00  0.00    +0.040 C 
ATOM     20  C   LIG    1       -3.639  -1.443   2.909  0.00  0.00    -0.030 C 
ATOM     21  C   LIG    1       -4.867  -2.356   2.855  0.00  0.00    +0.190 C 
ATOM     22  O   LIG    1       -6.036  -1.567   2.624  0.00  0.00    -0.390 OA
ATOM     23  C   LIG    1       -6.019  -0.846   1.390  0.00  0.00    +0.200 C 
ENDBRANCH  17  18
ENDBRANCH   1  17
TORSDOF 6
