REMARK  Name = ZINCvU0000000JJ2.0
REMARK                            x       y       z     vdW  Elec       q    Type
REMARK                         _______ _______ _______ _____ _____    ______ ____
ROOT
ATOM      1  N   LIG    1        6.077   8.239  -0.018  0.00  0.00    -0.410 N 
ATOM      2  C   LIG    1        5.787   6.902  -0.016  0.00  0.00    +0.150 A 
ATOM      3  N   LIG    1        6.931   6.255  -0.031  0.00  0.00    -0.290 NA
ATOM      4  N   LIG    1        7.910   7.088  -0.036  0.00  0.00    -0.260 NA
ATOM      5  C   LIG    1        7.453   8.319  -0.024  0.00  0.00    +0.240 A 
ENDROOT
BRANCH   1  12
ATOM      6  C   LIG    1        5.183   9.263  -2.518  0.00  0.00    +0.100 C 
ATOM      7  C   LIG    1        4.705   9.834  -1.208  0.00  0.00    -0.050 A 
ATOM      8  C   LIG    1        3.807  10.883  -1.197  0.00  0.00    +0.030 A 
ATOM      9  C   LIG    1        3.367  11.406   0.006  0.00  0.00    +0.050 A 
ATOM     10  C   LIG    1        3.825  10.881   1.200  0.00  0.00    +0.030 A 
ATOM     11  C   LIG    1        4.720   9.828   1.195  0.00  0.00    +0.040 A 
ATOM     12  C   LIG    1        5.166   9.304  -0.010  0.00  0.00    +0.080 A 
ENDBRANCH   1  12
BRANCH   5  13
ATOM     13  C   LIG    1        8.261   9.556  -0.026  0.00  0.00    -0.080 A 
ATOM     14  C   LIG    1        9.622   9.517  -0.352  0.00  0.00    +0.120 A 
ATOM     15  C   LIG    1       10.334  10.704  -0.339  0.00  0.00    -0.020 A 
ATOM     16  C   LIG    1        9.684  11.879  -0.008  0.00  0.00    +0.270 A 
ATOM     17  N   LIG    1        8.400  11.886   0.295  0.00  0.00    -0.480 NA
ATOM     18  C   LIG    1        7.679  10.785   0.292  0.00  0.00    +0.280 A 
ENDBRANCH   5  13
BRANCH   2  19
ATOM     19  S   LIG    1        4.179   6.181  -0.005  0.00  0.00    +0.110 S 
BRANCH  19  20
ATOM     20  C   LIG    1        4.621   4.426  -0.018  0.00  0.00    +0.100 C 
BRANCH  20  21
ATOM     21  C   LIG    1        3.366   3.592  -0.011  0.00  0.00    +0.530 C 
ATOM     22  N   LIG    1        3.450   2.247  -0.019  0.00  0.00    -0.650 N 
ATOM     23  H   LIG    1        4.319   1.816  -0.030  0.00  0.00    +0.420 HD
ATOM     24  O   LIG    1        2.279   4.131   0.002  0.00  0.00    -0.450 OA
BRANCH  22  25
ATOM     25  C   LIG    1        2.289   1.475  -0.012  0.00  0.00    +0.380 A 
ATOM     26  N   LIG    1        1.107   2.070   0.003  0.00  0.00    -0.450 NA
ATOM     27  C   LIG    1       -0.017   1.377   0.010  0.00  0.00    +0.340 A 
ATOM     28  C   LIG    1        0.002  -0.004   0.002  0.00  0.00    -0.110 A 
ATOM     29  C   LIG    1        1.223  -0.667  -0.013  0.00  0.00    +0.130 A 
ATOM     30 CL   LIG    1       -1.484  -0.902   0.011  0.00  0.00    -0.040 Cl
ATOM     31  C   LIG    1        2.384   0.087  -0.020  0.00  0.00    -0.120 A 
ATOM     32 CL   LIG    1        3.937  -0.689  -0.039  0.00  0.00    -0.040 Cl
ENDBRANCH  22  25
ENDBRANCH  20  21
ENDBRANCH  19  20
ENDBRANCH   2  19
TORSDOF 6
