REMARK  Name = ZINCpe000000TcZd.2
REMARK                            x       y       z     vdW  Elec       q    Type
REMARK                         _______ _______ _______ _____ _____    ______ ____
ROOT
ATOM      1  N   LIG    1        3.863   2.220  -4.579  0.00  0.00    -0.750 N 
ATOM      2  H   LIG    1        4.537   1.982  -5.235  0.00  0.00    +0.390 HD
ATOM      3  C   LIG    1        2.650   2.645  -4.983  0.00  0.00    +0.710 C 
ATOM      4  N   LIG    1        2.405   2.837  -6.295  0.00  0.00    -0.630 N 
ATOM      5  C   LIG    1        1.125   3.403  -6.742  0.00  0.00    +0.300 C 
ATOM      6  C   LIG    1        0.506   2.471  -7.782  0.00  0.00    +0.010 C 
ATOM      7  C   LIG    1        1.513   2.225  -8.908  0.00  0.00    +0.280 C 
ATOM      8  C   LIG    1        2.764   1.552  -8.338  0.00  0.00    +0.020 C 
ATOM      9  C   LIG    1        3.411   2.479  -7.304  0.00  0.00    +0.270 C 
ATOM     10  O   LIG    1        1.776   2.856  -4.164  0.00  0.00    -0.580 OA
ENDROOT
BRANCH   7  11
ATOM     11  N   LIG    1        0.909   1.355  -9.921  0.00  0.00    -0.990 NA
ATOM     12  C   LIG    1        0.413  -0.013  -9.710  0.00  0.00    +0.250 C 
ATOM     13  C   LIG    1       -0.736  -0.314 -10.695  0.00  0.00    +0.090 C 
ATOM     14  C   LIG    1       -0.213   0.213 -12.063  0.00  0.00    -0.320 C 
ATOM     15  S   LIG    1        0.666   1.732 -11.529  0.00  0.00    +2.570 S 
ATOM     16  O   LIG    1        1.967   1.800 -12.096  0.00  0.00    -0.960 OA
ATOM     17  O   LIG    1       -0.205   2.855 -11.519  0.00  0.00    -0.950 OA
ENDBRANCH   7  11
BRANCH   1  18
ATOM     18  C   LIG    1        4.164   2.115  -3.149  0.00  0.00    +0.290 C 
BRANCH  18  19
ATOM     19  C   LIG    1        5.598   1.612  -2.965  0.00  0.00    +0.170 C 
BRANCH  19  24
ATOM     20  C   LIG    1        9.345   3.912  -2.228  0.00  0.00    +0.070 C 
ATOM     21  C   LIG    1        8.174   3.041  -1.852  0.00  0.00    -0.130 C 
ATOM     22  C   LIG    1        7.133   3.598  -1.315  0.00  0.00    -0.080 C 
ATOM     23  C   LIG    1        5.910   2.832  -0.898  0.00  0.00    +0.250 C 
ATOM     24  N   LIG    1        5.899   1.508  -1.532  0.00  0.00    -0.520 NA
ATOM     25  C   LIG    1        7.187   0.828  -1.312  0.00  0.00    +0.210 C 
ATOM     26  C   LIG    1        8.266   1.563  -2.112  0.00  0.00    +0.030 C 
ENDBRANCH  19  24
ENDBRANCH  18  19
ENDBRANCH   1  18
TORSDOF 4
