REMARK  Name = ZINCrg000000qOYW.0
REMARK                            x       y       z     vdW  Elec       q    Type
REMARK                         _______ _______ _______ _____ _____    ______ ____
ROOT
ATOM      1  N   LIG    1       -6.016   1.851   0.353  0.00  0.00    -0.520 NA
ATOM      2  C   LIG    1       -5.947   2.617   1.605  0.00  0.00    +0.180 C 
ATOM      3  C   LIG    1       -7.030   3.701   1.597  0.00  0.00    +0.310 C 
ATOM      4  N   LIG    1       -8.328   3.064   1.329  0.00  0.00    -1.000 NA
ATOM      5  C   LIG    1       -8.437   2.171   0.165  0.00  0.00    +0.320 C 
ATOM      6  C   LIG    1       -7.299   1.146   0.230  0.00  0.00    +0.170 C 
ENDROOT
BRANCH   4   7
ATOM      7  S   LIG    1       -9.632   3.345   2.309  0.00  0.00    +2.700 S 
ATOM      8  O   LIG    1      -10.787   3.079   1.527  0.00  0.00    -0.950 OA
ATOM      9  O   LIG    1       -9.394   4.594   2.945  0.00  0.00    -0.950 OA
BRANCH   7  10
ATOM     10  C   LIG    1       -9.600   2.126   3.581  0.00  0.00    -0.740 A 
ATOM     11  C   LIG    1       -8.921   2.365   4.766  0.00  0.00    +0.170 A 
ATOM     12  C   LIG    1       -8.924   1.377   5.739  0.00  0.00    -0.040 A 
ATOM     13  C   LIG    1       -9.599   0.195   5.497  0.00  0.00    +0.320 A 
ATOM     14  N   LIG    1      -10.234   0.002   4.357  0.00  0.00    -0.490 NA
ATOM     15  C   LIG    1      -10.257   0.921   3.412  0.00  0.00    +0.370 A 
ENDBRANCH   7  10
ENDBRANCH   4   7
BRANCH   1  16
ATOM     16  C   LIG    1       -4.888   0.916   0.245  0.00  0.00    +0.220 C 
BRANCH  16  19
ATOM     17  N   LIG    1       -2.428   1.037   0.019  0.00  0.00    -0.670 N 
ATOM     18  H   LIG    1       -2.418   0.071  -0.063  0.00  0.00    +0.410 HD
ATOM     19  C   LIG    1       -3.602   1.691   0.130  0.00  0.00    +0.510 C 
ATOM     20  O   LIG    1       -3.622   2.904   0.137  0.00  0.00    -0.500 OA
BRANCH  17  24
ATOM     21  C   LIG    1        1.158   3.165   0.036  0.00  0.00    +0.110 A 
ATOM     22  C   LIG    1        0.082   3.614   0.787  0.00  0.00    +0.010 A 
ATOM     23  C   LIG    1       -1.107   2.912   0.779  0.00  0.00    +0.060 A 
ATOM     24  C   LIG    1       -1.224   1.753   0.023  0.00  0.00    +0.110 A 
ATOM     25  C   LIG    1       -0.148   1.307  -0.732  0.00  0.00    +0.030 A 
ATOM     26  C   LIG    1        1.040   2.010  -0.724  0.00  0.00    -0.060 A 
BRANCH  21  28
ATOM     27  C   LIG    1        3.395   3.337  -0.753  0.00  0.00    +0.250 C 
ATOM     28  O   LIG    1        2.328   3.857   0.044  0.00  0.00    -0.320 OA
ENDBRANCH  21  28
ENDBRANCH  17  24
ENDBRANCH  16  19
ENDBRANCH   1  16
TORSDOF 6
