REMARK  Name = ZINCrH00000No4Cc.0
REMARK                            x       y       z     vdW  Elec       q    Type
REMARK                         _______ _______ _______ _____ _____    ______ ____
ROOT
ATOM      1  O   LIG    1        1.026   1.815  -0.241  0.00  0.00    -0.530 OA
ATOM      2  C   LIG    1       -0.020   1.204  -0.126  0.00  0.00    +0.560 C 
ATOM      3  N   LIG    1       -1.181   1.875   0.012  0.00  0.00    -0.600 N 
ENDROOT
BRANCH   3   4
ATOM      4  C   LIG    1       -1.198   3.337  -0.090  0.00  0.00    +0.270 C 
ATOM      5  C   LIG    1       -0.654   3.766  -1.464  0.00  0.00    +0.070 C 
ATOM      6  C   LIG    1       -0.390   5.292  -1.380  0.00  0.00    -0.310 C 
ATOM      7  S   LIG    1        0.383   5.471   0.272  0.00  0.00    +2.390 S 
ATOM      8  O   LIG    1       -0.169   6.604   0.930  0.00  0.00    -0.940 OA
ATOM      9  O   LIG    1        1.793   5.343   0.149  0.00  0.00    -0.920 OA
ATOM     10  C   LIG    1       -0.300   3.944   1.006  0.00  0.00    -0.320 C 
ENDBRANCH   3   4
BRANCH   2  11
ATOM     11  C   LIG    1       -0.018  -0.214  -0.130  0.00  0.00    -0.080 C 
ATOM     12  C   LIG    1        1.132  -0.888  -0.370  0.00  0.00    +0.190 C 
BRANCH  12  13
ATOM     13  C   LIG    1        1.135  -2.350  -0.374  0.00  0.00    +0.030 A 
ATOM     14  C   LIG    1        2.227  -3.132  -0.603  0.00  0.00    +0.020 A 
ATOM     15  C   LIG    1        1.761  -4.514  -0.510  0.00  0.00    -0.140 A 
ATOM     16  C   LIG    1        2.378  -5.760  -0.640  0.00  0.00    +0.070 A 
ATOM     17  C   LIG    1        1.641  -6.901  -0.490  0.00  0.00    -0.010 A 
ATOM     18  C   LIG    1        0.284  -6.828  -0.208  0.00  0.00    +0.060 A 
ATOM     19  C   LIG    1       -0.344  -5.608  -0.075  0.00  0.00    +0.020 A 
ATOM     20  C   LIG    1        0.384  -4.435  -0.224  0.00  0.00    +0.070 A 
ATOM     21  O   LIG    1        0.057  -3.130  -0.147  0.00  0.00    -0.190 OA
ENDBRANCH  12  13
ENDBRANCH   2  11
BRANCH   3  22
ATOM     22  C   LIG    1       -2.425   1.144   0.263  0.00  0.00    +0.390 C 
BRANCH  22  23
ATOM     23  C   LIG    1       -2.628   0.993   1.748  0.00  0.00    -0.220 A 
ATOM     24  C   LIG    1       -3.281   1.858   2.526  0.00  0.00    +0.030 A 
ATOM     25  C   LIG    1       -3.341   1.508   3.864  0.00  0.00    +0.000 A 
ATOM     26  C   LIG    1       -2.736   0.360   4.173  0.00  0.00    -0.030 A 
ATOM     27  S   LIG    1       -2.047  -0.353   2.720  0.00  0.00    +0.110 S 
ENDBRANCH  22  23
ENDBRANCH   3  22
TORSDOF 5
