REMARK  Name = ZINCrH000004oLZe.0
REMARK                            x       y       z     vdW  Elec       q    Type
REMARK                         _______ _______ _______ _____ _____    ______ ____
ROOT
ATOM      1  C   LIG    1        1.159   3.160  -0.009  0.00  0.00    -0.690 A 
ATOM      2  C   LIG    1        1.166   1.790  -0.189  0.00  0.00    +0.140 A 
ATOM      3  C   LIG    1       -0.021   1.083  -0.177  0.00  0.00    +0.000 A 
ATOM      4  C   LIG    1       -1.223   1.752   0.012  0.00  0.00    +0.200 A 
ATOM      5  C   LIG    1       -1.226   3.129   0.199  0.00  0.00    -0.020 A 
ATOM      6  C   LIG    1       -0.036   3.829   0.185  0.00  0.00    +0.150 A 
ENDROOT
BRANCH   4   7
ATOM      7  N   LIG    1       -2.427   1.041   0.019  0.00  0.00    -0.670 N 
ATOM      8  H   LIG    1       -3.235   1.452  -0.327  0.00  0.00    +0.420 HD
ATOM      9  C   LIG    1       -2.465  -0.215   0.505  0.00  0.00    +0.560 C 
ATOM     10  O   LIG    1       -1.477  -0.696   1.025  0.00  0.00    -0.500 OA
BRANCH   9  11
ATOM     11  C   LIG    1       -3.708  -1.009   0.406  0.00  0.00    -0.110 A 
ATOM     12  C   LIG    1       -4.846  -0.458  -0.185  0.00  0.00    +0.030 A 
ATOM     13  C   LIG    1       -6.002  -1.205  -0.281  0.00  0.00    +0.050 A 
ATOM     14  C   LIG    1       -6.039  -2.494   0.218  0.00  0.00    +0.030 A 
ATOM     15  C   LIG    1       -4.915  -3.047   0.812  0.00  0.00    +0.100 A 
ATOM     16  F   LIG    1       -4.959  -4.307   1.298  0.00  0.00    -0.130 F 
ATOM     17  C   LIG    1       -3.750  -2.310   0.908  0.00  0.00    +0.060 A 
ENDBRANCH   9  11
ENDBRANCH   4   7
BRANCH   1  18
ATOM     18  S   LIG    1        2.675   4.058  -0.026  0.00  0.00    +2.690 S 
ATOM     19  O   LIG    1        3.695   3.128   0.313  0.00  0.00    -0.950 OA
ATOM     20  O   LIG    1        2.442   5.255   0.704  0.00  0.00    -0.950 OA
BRANCH  18  26
ATOM     21  C   LIG    1        3.725   2.612  -4.777  0.00  0.00    +0.030 C 
ATOM     22  C   LIG    1        2.893   3.404  -3.766  0.00  0.00    -0.030 C 
ATOM     23  C   LIG    1        2.498   4.752  -4.373  0.00  0.00    +0.030 C 
ATOM     24  C   LIG    1        1.639   5.531  -3.375  0.00  0.00    -0.030 C 
ATOM     25  C   LIG    1        2.452   5.794  -2.103  0.00  0.00    +0.290 C 
ATOM     26  N   LIG    1        2.958   4.513  -1.593  0.00  0.00    -0.990 NA
ATOM     27  C   LIG    1        0.394   4.713  -3.025  0.00  0.00    +0.020 C 
ATOM     28  C   LIG    1        3.725   3.645  -2.497  0.00  0.00    +0.290 C 
ENDBRANCH  18  26
ENDBRANCH   1  18
TORSDOF 4
