REMARK  Name = ZINCqH0000035GDk.0
REMARK                            x       y       z     vdW  Elec       q    Type
REMARK                         _______ _______ _______ _____ _____    ______ ____
ROOT
ATOM      1  N   LIG    1        2.936   7.880   0.015  0.00  0.00    -0.730 N 
ATOM      2  H   LIG    1        3.904   7.827   0.005  0.00  0.00    +0.410 HD
ATOM      3  C   LIG    1        2.200   6.751   0.017  0.00  0.00    +0.520 C 
ATOM      4  O   LIG    1        0.989   6.817   0.029  0.00  0.00    -0.540 OA
ENDROOT
BRANCH   1   5
ATOM      5  C   LIG    1        2.273   9.187   0.029  0.00  0.00    +0.320 C 
BRANCH   5   8
ATOM      6  C   LIG    1        4.734  11.786  -1.185  0.00  0.00    +0.150 A 
ATOM      7  C   LIG    1        3.777  10.782  -1.176  0.00  0.00    -0.070 A 
ATOM      8  C   LIG    1        3.313  10.277   0.024  0.00  0.00    -0.040 A 
ATOM      9  C   LIG    1        3.797  10.774   1.220  0.00  0.00    -0.070 A 
ATOM     10  C   LIG    1        4.758  11.773   1.220  0.00  0.00    +0.150 A 
ATOM     11  C   LIG    1        5.227  12.284   0.015  0.00  0.00    +0.040 A 
BRANCH   6  13
ATOM     12  C   LIG    1        4.638  11.724  -3.560  0.00  0.00    +0.240 C 
ATOM     13  O   LIG    1        5.189  12.283  -2.366  0.00  0.00    -0.300 OA
ENDBRANCH   6  13
BRANCH  10  14
ATOM     14  O   LIG    1        5.237  12.257   2.397  0.00  0.00    -0.300 OA
ATOM     15  C   LIG    1        4.710  11.685   3.596  0.00  0.00    +0.240 C 
ENDBRANCH  10  14
BRANCH  11  16
ATOM     16  O   LIG    1        6.165  13.269   0.011  0.00  0.00    -0.310 OA
ATOM     17  C   LIG    1        5.691  14.617   0.024  0.00  0.00    +0.230 C 
ENDBRANCH  11  16
ENDBRANCH   5   8
ENDBRANCH   1   5
BRANCH   3  18
ATOM     18  C   LIG    1        2.881   5.407   0.003  0.00  0.00    +0.070 C 
BRANCH  18  19
ATOM     19  C   LIG    1        1.825   4.300   0.007  0.00  0.00    +0.060 C 
BRANCH  19  20
ATOM     20  C   LIG    1        2.506   2.956  -0.006  0.00  0.00    +0.430 C 
ATOM     21  O   LIG    1        3.719   2.890  -0.019  0.00  0.00    -0.450 OA
BRANCH  20  22
ATOM     22  C   LIG    1        1.736   1.774  -0.005  0.00  0.00    -0.310 A 
ATOM     23  C   LIG    1        2.237   0.496  -0.017  0.00  0.00    +0.130 A 
ATOM     24  C   LIG    1        1.262  -0.468  -0.013  0.00  0.00    +0.020 A 
ATOM     25  C   LIG    1        0.002  -0.004   0.002  0.00  0.00    -0.160 A 
ATOM     26 CL   LIG    1       -1.415  -1.007   0.010  0.00  0.00    +0.000 Cl
ATOM     27  S   LIG    1       -0.021   1.702   0.011  0.00  0.00    +0.290 S 
ENDBRANCH  20  22
ENDBRANCH  19  20
ENDBRANCH  18  19
ENDBRANCH   3  18
TORSDOF 9
