REMARK  Name = ZINC660000002ypw.0
REMARK                            x       y       z     vdW  Elec       q    Type
REMARK                         _______ _______ _______ _____ _____    ______ ____
ROOT
ATOM      1  C   LIG    1       -0.013   1.086   0.008  0.00  0.00    +0.210 C 
ATOM      2  C   LIG    1        1.423   1.615  -0.003  0.00  0.00    +0.020 C 
ENDROOT
BRANCH   1   3
ATOM      3  O   LIG    1       -0.704   1.559  -1.150  0.00  0.00    -0.550 OA
ATOM      4  H   LIG    1       -0.756   2.523  -1.210  0.00  0.00    +0.370 HD
ENDBRANCH   1   3
BRANCH   1   5
ATOM      5  C   LIG    1       -0.729   1.579   1.267  0.00  0.00    +0.140 C 
BRANCH   5   7
ATOM      6  C   LIG    1       -2.787   1.389   2.481  0.00  0.00    +0.200 C 
ATOM      7  O   LIG    1       -2.030   0.991   1.336  0.00  0.00    -0.380 OA
ENDBRANCH   5   7
ENDBRANCH   1   5
TORSDOF 3
