REMARK  Name = ZINCqH00000386IU.0
REMARK                            x       y       z     vdW  Elec       q    Type
REMARK                         _______ _______ _______ _____ _____    ______ ____
ROOT
ATOM      1  C   LIG    1        4.115   7.451  -0.700  0.00  0.00    -0.170 A 
ATOM      2  C   LIG    1        4.811   6.246  -0.805  0.00  0.00    +0.160 A 
ATOM      3  C   LIG    1        6.184   6.231  -0.674  0.00  0.00    -0.690 A 
ATOM      4  C   LIG    1        6.872   7.408  -0.439  0.00  0.00    +0.170 A 
ATOM      5  C   LIG    1        6.189   8.607  -0.333  0.00  0.00    -0.010 A 
ATOM      6  C   LIG    1        4.816   8.636  -0.467  0.00  0.00    +0.040 A 
ATOM      7  C   LIG    1        4.074   9.943  -0.358  0.00  0.00    +0.130 C 
ENDROOT
BRANCH   1  10
ATOM      8  N   LIG    1        1.984   6.356  -1.197  0.00  0.00    -0.670 N 
ATOM      9  H   LIG    1        2.467   5.522  -1.310  0.00  0.00    +0.410 HD
ATOM     10  C   LIG    1        2.644   7.474  -0.839  0.00  0.00    +0.570 C 
ATOM     11  O   LIG    1        2.030   8.503  -0.631  0.00  0.00    -0.500 OA
BRANCH   8  17
ATOM     12  C   LIG    1       -2.391   8.364  -0.196  0.00  0.00    +0.110 C 
ATOM     13  C   LIG    1       -1.545   7.359  -0.935  0.00  0.00    -0.070 A 
ATOM     14  C   LIG    1       -2.135   6.481  -1.825  0.00  0.00    +0.030 A 
ATOM     15  C   LIG    1       -1.363   5.554  -2.501  0.00  0.00    +0.010 A 
ATOM     16  C   LIG    1        0.003   5.510  -2.297  0.00  0.00    +0.060 A 
ATOM     17  C   LIG    1        0.600   6.396  -1.407  0.00  0.00    +0.120 A 
ATOM     18  F   LIG    1        0.758   4.608  -2.962  0.00  0.00    -0.140 F 
ATOM     19  C   LIG    1       -0.179   7.321  -0.727  0.00  0.00    +0.060 A 
ENDBRANCH   8  17
ENDBRANCH   1  10
BRANCH   3  20
ATOM     20  S   LIG    1        7.064   4.710  -0.807  0.00  0.00    +2.700 S 
ATOM     21  O   LIG    1        6.203   3.703  -0.295  0.00  0.00    -0.960 OA
ATOM     22  O   LIG    1        8.367   4.954  -0.294  0.00  0.00    -0.950 OA
BRANCH  20  23
ATOM     23  N   LIG    1        7.249   4.391  -2.422  0.00  0.00    -1.110 NA
ATOM     24  H   LIG    1        6.798   3.631  -2.821  0.00  0.00    +0.420 HD
BRANCH  23  25
ATOM     25  C   LIG    1        8.095   5.257  -3.247  0.00  0.00    +0.170 C 
ATOM     26  C   LIG    1        7.660   6.713  -3.070  0.00  0.00    +0.030 C 
ATOM     27  C   LIG    1        7.952   4.858  -4.717  0.00  0.00    +0.050 C 
ATOM     28  C   LIG    1        9.555   5.104  -2.817  0.00  0.00    +0.030 C 
ENDBRANCH  23  25
ENDBRANCH  20  23
ENDBRANCH   3  20
TORSDOF 5
