REMARK  Name = ZINCvU0000000EVe.0
REMARK                            x       y       z     vdW  Elec       q    Type
REMARK                         _______ _______ _______ _____ _____    ______ ____
ROOT
ATOM      1  O   LIG    1        2.306  -2.341   1.136  0.00  0.00    -0.320 OA
ENDROOT
BRANCH   1   2
ATOM      2  C   LIG    1        2.008  -1.724  -0.025  0.00  0.00    +0.560 C 
ATOM      3  O   LIG    1        2.243  -2.274  -1.083  0.00  0.00    -0.480 OA
BRANCH   2   6
ATOM      4  C   LIG    1        3.504   1.096  -0.041  0.00  0.00    +0.210 C 
ATOM      5  C   LIG    1        2.019   0.839  -0.017  0.00  0.00    +0.050 A 
ATOM      6  C   LIG    1        1.398  -0.385  -0.011  0.00  0.00    -0.230 A 
ATOM      7  C   LIG    1       -0.036  -0.025   0.013  0.00  0.00    +0.100 A 
ATOM      8  N   LIG    1       -0.059   1.283   0.017  0.00  0.00    -0.320 NA
ATOM      9  O   LIG    1        1.051   1.757   0.001  0.00  0.00    +0.120 OA
BRANCH   7  10
ATOM     10  C   LIG    1       -1.197  -0.947   0.029  0.00  0.00    -0.020 A 
ATOM     11  C   LIG    1       -0.995  -2.326   0.016  0.00  0.00    +0.040 A 
ATOM     12  C   LIG    1       -2.080  -3.180   0.036  0.00  0.00    +0.030 A 
ATOM     13  C   LIG    1       -3.365  -2.670   0.058  0.00  0.00    +0.050 A 
ATOM     14  C   LIG    1       -3.573  -1.302   0.065  0.00  0.00    +0.030 A 
ATOM     15  C   LIG    1       -2.496  -0.438   0.051  0.00  0.00    -0.010 A 
ATOM     16 CL   LIG    1       -2.757   1.278   0.059  0.00  0.00    -0.030 Cl
ENDBRANCH   7  10
ENDBRANCH   2   6
ENDBRANCH   1   2
BRANCH   1  17
ATOM     17  C   LIG    1        2.905  -3.660   1.047  0.00  0.00    +0.280 C 
BRANCH  17  18
ATOM     18  C   LIG    1        3.167  -4.188   2.434  0.00  0.00    +0.520 C 
ATOM     19  N   LIG    1        3.723  -5.404   2.598  0.00  0.00    -0.670 N 
ATOM     20  H   LIG    1        3.896  -5.967   1.827  0.00  0.00    +0.420 HD
ATOM     21  O   LIG    1        2.876  -3.518   3.402  0.00  0.00    -0.480 OA
BRANCH  19  22
ATOM     22  C   LIG    1        4.052  -5.856   3.881  0.00  0.00    +0.160 A 
ATOM     23  C   LIG    1        3.256  -5.512   4.965  0.00  0.00    +0.100 A 
ATOM     24  C   LIG    1        3.580  -5.964   6.230  0.00  0.00    -0.160 A 
ATOM     25  C   LIG    1        4.702  -6.750   6.419  0.00  0.00    +0.080 A 
ATOM     26  C   LIG    1        5.501  -7.090   5.343  0.00  0.00    +0.060 A 
ATOM     27  C   LIG    1        5.179  -6.646   4.074  0.00  0.00    -0.030 A 
ATOM     28 CL   LIG    1        6.183  -7.074   2.724  0.00  0.00    -0.040 Cl
BRANCH  24  29
ATOM     29  C   LIG    1        2.713  -5.594   7.406  0.00  0.00    +0.510 C 
ATOM     30  F   LIG    1        1.417  -6.079   7.200  0.00  0.00    -0.170 F 
ATOM     31  F   LIG    1        2.675  -4.202   7.538  0.00  0.00    -0.170 F 
ATOM     32  F   LIG    1        3.242  -6.159   8.571  0.00  0.00    -0.170 F 
ENDBRANCH  24  29
ENDBRANCH  19  22
ENDBRANCH  17  18
ENDBRANCH   1  17
TORSDOF 7
