REMARK  Name = ZINCtV00000tRQaO.0
REMARK                            x       y       z     vdW  Elec       q    Type
REMARK                         _______ _______ _______ _____ _____    ______ ____
ROOT
ATOM      1  C   LIG    1        0.460  -2.685  -4.561  0.00  0.00    +0.040 C 
ATOM      2  C   LIG    1        1.105  -2.872  -3.187  0.00  0.00    +0.190 C 
ATOM      3  C   LIG    1        1.440  -4.361  -2.958  0.00  0.00    +0.050 C 
ATOM      4  C   LIG    1        2.942  -4.442  -3.341  0.00  0.00    +0.040 C 
ATOM      5  C   LIG    1        3.464  -3.072  -2.841  0.00  0.00    +0.240 C 
ATOM      6  N   LIG    1        2.370  -2.125  -3.123  0.00  0.00    -0.620 N 
ATOM      7  C   LIG    1        2.506  -0.795  -3.294  0.00  0.00    +0.720 C 
ATOM      8  N   LIG    1        3.735  -0.241  -3.313  0.00  0.00    -0.680 N 
ATOM      9  H   LIG    1        4.522  -0.807  -3.310  0.00  0.00    +0.410 HD
ATOM     10  O   LIG    1        1.521  -0.096  -3.430  0.00  0.00    -0.560 OA
ENDROOT
BRANCH   8  11
ATOM     11  C   LIG    1        3.874   1.151  -3.338  0.00  0.00    +0.210 A 
ATOM     12  C   LIG    1        4.940   1.732  -4.012  0.00  0.00    -0.040 A 
ATOM     13  C   LIG    1        5.075   3.108  -4.035  0.00  0.00    +0.140 A 
ATOM     14  C   LIG    1        4.147   3.907  -3.388  0.00  0.00    -0.020 A 
ATOM     15  C   LIG    1        3.084   3.330  -2.716  0.00  0.00    +0.010 A 
ATOM     16 CL   LIG    1        1.923   4.334  -1.905  0.00  0.00    -0.050 Cl
ATOM     17  F   LIG    1        6.112   3.674  -4.690  0.00  0.00    -0.130 F 
ATOM     18  C   LIG    1        2.942   1.955  -2.694  0.00  0.00    +0.020 A 
ENDBRANCH   8  11
BRANCH   2  19
ATOM     19  C   LIG    1        0.154  -2.379  -2.095  0.00  0.00    +0.100 C 
BRANCH  19  20
ATOM     20  C   LIG    1        0.821  -2.512  -0.750  0.00  0.00    -0.080 A 
ATOM     21  C   LIG    1        1.656  -1.510  -0.292  0.00  0.00    +0.060 A 
ATOM     22  C   LIG    1        2.269  -1.629   0.940  0.00  0.00    +0.020 A 
ATOM     23  C   LIG    1        2.046  -2.755   1.719  0.00  0.00    +0.100 A 
ATOM     24  C   LIG    1        1.207  -3.759   1.257  0.00  0.00    -0.060 A 
ATOM     25  C   LIG    1        0.597  -3.635   0.024  0.00  0.00    +0.050 A 
BRANCH  23  26
ATOM     26  O   LIG    1        2.647  -2.874   2.932  0.00  0.00    -0.310 OA
BRANCH  26  27
ATOM     27  C   LIG    1        2.373  -4.062   3.678  0.00  0.00    +0.600 C 
ATOM     28  F   LIG    1        1.010  -4.111   3.991  0.00  0.00    -0.160 F 
ATOM     29  F   LIG    1        3.123  -4.055   4.858  0.00  0.00    -0.130 F 
ATOM     30  F   LIG    1        2.717  -5.183   2.914  0.00  0.00    -0.170 F 
ENDBRANCH  26  27
ENDBRANCH  23  26
ENDBRANCH  19  20
ENDBRANCH   2  19
TORSDOF 5
