REMARK  Name = ZINCqH0000037xaj.0
REMARK                            x       y       z     vdW  Elec       q    Type
REMARK                         _______ _______ _______ _____ _____    ______ ____
ROOT
ATOM      1  N   LIG    1        3.440   2.054  -0.045  0.00  0.00    -0.460 N 
ATOM      2  C   LIG    1        4.020   2.589   1.083  0.00  0.00    +0.120 A 
ATOM      3  C   LIG    1        3.665   2.592   2.428  0.00  0.00    -0.020 A 
ATOM      4  C   LIG    1        4.470   3.230   3.348  0.00  0.00    +0.040 A 
ATOM      5  C   LIG    1        5.634   3.870   2.947  0.00  0.00    -0.030 A 
ATOM      6  C   LIG    1        6.003   3.880   1.631  0.00  0.00    +0.050 A 
ATOM      7  C   LIG    1        5.203   3.240   0.681  0.00  0.00    -0.100 A 
ATOM      8  C   LIG    1        5.297   3.061  -0.767  0.00  0.00    -0.020 A 
ATOM      9  C   LIG    1        4.214   2.337  -1.147  0.00  0.00    +0.120 A 
ENDROOT
BRANCH   9  10
ATOM     10  C   LIG    1        3.911   1.920  -2.533  0.00  0.00    -0.030 A 
ATOM     11  C   LIG    1        4.938   1.807  -3.471  0.00  0.00    +0.030 A 
ATOM     12  C   LIG    1        4.649   1.412  -4.761  0.00  0.00    +0.020 A 
ATOM     13  C   LIG    1        3.343   1.140  -5.128  0.00  0.00    +0.010 A 
ATOM     14  C   LIG    1        2.320   1.256  -4.204  0.00  0.00    +0.010 A 
ATOM     15  C   LIG    1        2.596   1.645  -2.909  0.00  0.00    +0.000 A 
ENDBRANCH   9  10
BRANCH   1  16
ATOM     16  C   LIG    1        2.189   1.291  -0.069  0.00  0.00    +0.320 C 
BRANCH  16  19
ATOM     17  N   LIG    1       -0.236   1.763  -0.189  0.00  0.00    -0.720 N 
ATOM     18  H   LIG    1       -0.392   0.806  -0.159  0.00  0.00    +0.400 HD
ATOM     19  C   LIG    1        1.023   2.242  -0.154  0.00  0.00    +0.490 C 
ATOM     20  O   LIG    1        1.218   3.438  -0.192  0.00  0.00    -0.500 OA
BRANCH  17  26
ATOM     21  C   LIG    1       -2.324   0.593   0.735  0.00  0.00    +0.020 C 
ATOM     22  C   LIG    1       -2.641   2.015   0.269  0.00  0.00    +0.120 C 
ATOM     23  C   LIG    1       -3.654   1.976  -0.894  0.00  0.00    +0.010 C 
ATOM     24  C   LIG    1       -3.198   3.121  -1.833  0.00  0.00    +0.020 C 
ATOM     25  C   LIG    1       -1.654   3.033  -1.754  0.00  0.00    +0.020 C 
ATOM     26  C   LIG    1       -1.369   2.687  -0.278  0.00  0.00    +0.250 C 
BRANCH  22  27
ATOM     27  O   LIG    1       -3.171   2.780   1.354  0.00  0.00    -0.550 OA
ATOM     28  H   LIG    1       -3.974   2.407   1.742  0.00  0.00    +0.380 HD
ENDBRANCH  22  27
ENDBRANCH  17  26
ENDBRANCH  16  19
ENDBRANCH   1  16
TORSDOF 5
