REMARK  Name = ZINCpe000027pHkU.0
REMARK                            x       y       z     vdW  Elec       q    Type
REMARK                         _______ _______ _______ _____ _____    ______ ____
ROOT
ATOM      1  C   LIG    1        3.712  -4.212   1.454  0.00  0.00    +0.280 C 
ATOM      2  C   LIG    1        4.095  -5.456   0.650  0.00  0.00    +0.040 C 
ENDROOT
BRANCH   1   3
ATOM      3  C   LIG    1        4.961  -3.486   1.882  0.00  0.00    -0.120 A 
ATOM      4  C   LIG    1        5.832  -2.988   0.931  0.00  0.00    +0.080 A 
ATOM      5  C   LIG    1        6.976  -2.318   1.324  0.00  0.00    +0.000 A 
ATOM      6  C   LIG    1        7.254  -2.156   2.668  0.00  0.00    +0.130 A 
ATOM      7  C   LIG    1        6.386  -2.659   3.620  0.00  0.00    -0.670 A 
ATOM      8  C   LIG    1        5.240  -3.324   3.227  0.00  0.00    +0.140 A 
BRANCH   7   9
ATOM      9  S   LIG    1        6.741  -2.452   5.333  0.00  0.00    +2.700 S 
ATOM     10  O   LIG    1        5.498  -2.544   6.015  0.00  0.00    -0.960 OA
ATOM     11  O   LIG    1        7.600  -1.325   5.432  0.00  0.00    -0.960 OA
BRANCH   9  12
ATOM     12  N   LIG    1        7.634  -3.763   5.810  0.00  0.00    -1.250 NA
ATOM     13  H   LIG    1        7.932  -3.838   6.730  0.00  0.00    +0.420 HD
ATOM     14  H   LIG    1        7.858  -4.456   5.169  0.00  0.00    +0.420 HD
ENDBRANCH   9  12
ENDBRANCH   7   9
ENDBRANCH   1   3
BRANCH   1  16
ATOM     15  C   LIG    1        1.691  -2.906   1.065  0.00  0.00    +0.530 C 
ATOM     16  N   LIG    1        2.893  -3.325   0.623  0.00  0.00    -0.610 N 
ATOM     17  C   LIG    1        3.382  -2.895  -0.690  0.00  0.00    +0.280 C 
ATOM     18  O   LIG    1        1.287  -3.263   2.152  0.00  0.00    -0.520 OA
BRANCH  15  23
ATOM     19  C   LIG    1        0.643   1.732   0.032  0.00  0.00    +0.560 C 
ATOM     20  N   LIG    1        0.462   0.399   0.113  0.00  0.00    -0.620 N 
ATOM     21  C   LIG    1       -0.835  -0.283   0.282  0.00  0.00    +0.270 C 
ATOM     22  C   LIG    1       -0.484  -1.648   0.924  0.00  0.00    +0.070 C 
ATOM     23  C   LIG    1        0.850  -1.995   0.210  0.00  0.00    -0.010 C 
ATOM     24  C   LIG    1        1.523  -0.616   0.042  0.00  0.00    +0.270 C 
ATOM     25  O   LIG    1        1.763   2.186  -0.108  0.00  0.00    -0.540 OA
BRANCH  19  27
ATOM     26  C   LIG    1       -0.334   3.953   0.026  0.00  0.00    +0.150 C 
ATOM     27  C   LIG    1       -0.514   2.638   0.106  0.00  0.00    -0.090 C 
ENDBRANCH  19  27
ENDBRANCH  15  23
ENDBRANCH   1  16
TORSDOF 6
