REMARK  Name = ZINCb80000002mA2.0
REMARK                            x       y       z     vdW  Elec       q    Type
REMARK                         _______ _______ _______ _____ _____    ______ ____
ROOT
ATOM      1  C   LIG    1       -0.729   1.579   1.267  0.00  0.00    +0.310 C 
ENDROOT
BRANCH   1   2
ATOM      2  C   LIG    1       -0.074   0.981   2.485  0.00  0.00    -0.020 A 
ATOM      3  N   LIG    1        1.092   1.332   3.008  0.00  0.00    -0.370 NA
ATOM      4  N   LIG    1        1.296   0.587   4.040  0.00  0.00    -0.160 NA
ATOM      5  N   LIG    1        0.304  -0.223   4.176  0.00  0.00    -0.160 NA
ATOM      6  N   LIG    1       -0.550  -0.003   3.235  0.00  0.00    -0.350 NA
ENDBRANCH   1   2
BRANCH   1   7
ATOM      7  N   LIG    1       -0.644   3.044   1.336  0.00  0.00    -0.630 N 
ATOM      8  H   LIG    1       -1.083   3.445   0.520  0.00  0.00    +0.430 HD
ATOM      9  H   LIG    1        0.324   3.324   1.368  0.00  0.00    +0.440 HD
ATOM     10  H   LIG    1       -1.117   3.370   2.166  0.00  0.00    +0.430 HD
ENDBRANCH   1   7
BRANCH   1  11
ATOM     11  C   LIG    1       -0.013   1.086   0.008  0.00  0.00    +0.070 C 
BRANCH  11  13
ATOM     12  C   LIG    1        0.031   1.205  -2.487  0.00  0.00    +0.030 C 
ATOM     13  C   LIG    1       -0.753   1.593  -1.232  0.00  0.00    -0.040 C 
ATOM     14  C   LIG    1       -2.147   0.964  -1.286  0.00  0.00    +0.030 C 
ENDBRANCH  11  13
ENDBRANCH   1  11
TORSDOF 4
