REMARK  Name = ZINCrD000000fEc9.0
REMARK                            x       y       z     vdW  Elec       q    Type
REMARK                         _______ _______ _______ _____ _____    ______ ____
ROOT
ATOM      1  C   LIG    1        3.856   2.131  -0.756  0.00  0.00    -0.070 A 
ATOM      2  C   LIG    1        4.937   1.287  -0.546  0.00  0.00    +0.020 A 
ATOM      3  C   LIG    1        4.742  -0.103  -0.581  0.00  0.00    +0.200 A 
ATOM      4  N   LIG    1        3.563  -0.642  -0.807  0.00  0.00    -0.440 NA
ATOM      5  C   LIG    1        2.471   0.094  -1.019  0.00  0.00    +0.130 A 
ATOM      6  C   LIG    1        1.223  -0.511  -1.259  0.00  0.00    +0.050 A 
ATOM      7  C   LIG    1        0.126   0.267  -1.472  0.00  0.00    +0.030 A 
ATOM      8  C   LIG    1        0.216   1.657  -1.457  0.00  0.00    +0.020 A 
ATOM      9  C   LIG    1        1.408   2.277  -1.228  0.00  0.00    +0.060 A 
ATOM     10  C   LIG    1        2.556   1.509  -1.006  0.00  0.00    -0.070 A 
ENDROOT
BRANCH   3  11
ATOM     11  C   LIG    1        5.905  -0.994  -0.354  0.00  0.00    -0.070 A 
ATOM     12  C   LIG    1        7.188  -0.459  -0.259  0.00  0.00    +0.040 A 
ATOM     13  C   LIG    1        8.267  -1.293  -0.044  0.00  0.00    +0.000 A 
ATOM     14  C   LIG    1        8.077  -2.659   0.067  0.00  0.00    -0.060 A 
ATOM     15  C   LIG    1        6.806  -3.196  -0.032  0.00  0.00    +0.000 A 
ATOM     16  C   LIG    1        9.259  -3.565   0.297  0.00  0.00    +0.090 C 
ATOM     17  C   LIG    1        5.720  -2.371  -0.242  0.00  0.00    -0.030 A 
ATOM     18  C   LIG    1        4.336  -2.958  -0.349  0.00  0.00    +0.110 C 
ENDBRANCH   3  11
BRANCH   1  21
ATOM     19  N   LIG    1        5.197   4.147  -0.385  0.00  0.00    -0.720 N 
ATOM     20  H   LIG    1        5.946   3.575  -0.156  0.00  0.00    +0.400 HD
ATOM     21  C   LIG    1        4.013   3.602  -0.728  0.00  0.00    +0.570 C 
ATOM     22  O   LIG    1        3.074   4.319  -1.015  0.00  0.00    -0.520 OA
BRANCH  19  23
ATOM     23  C   LIG    1        5.352   5.604  -0.357  0.00  0.00    +0.270 C 
BRANCH  23  24
ATOM     24  C   LIG    1        6.780   5.957   0.061  0.00  0.00    +0.270 C 
BRANCH  24  27
ATOM     25  C   LIG    1        8.278   9.457   0.460  0.00  0.00    +0.100 C 
ATOM     26  C   LIG    1        8.119   7.959   0.432  0.00  0.00    +0.510 C 
ATOM     27  N   LIG    1        6.935   7.413   0.088  0.00  0.00    -0.730 N 
ATOM     28  H   LIG    1        6.186   7.985  -0.140  0.00  0.00    +0.410 HD
ATOM     29  O   LIG    1        9.056   7.244   0.718  0.00  0.00    -0.540 OA
ENDBRANCH  24  27
ENDBRANCH  23  24
ENDBRANCH  19  23
ENDBRANCH   1  21
TORSDOF 5
