REMARK  Name = ZINCtV000002G13F.0
REMARK                            x       y       z     vdW  Elec       q    Type
REMARK                         _______ _______ _______ _____ _____    ______ ____
ROOT
ATOM      1  C   LIG    1       -5.355   2.190  -0.558  0.00  0.00    +0.260 A 
ATOM      2  N   LIG    1       -6.611   2.530  -0.324  0.00  0.00    -0.460 NA
ATOM      3  C   LIG    1       -7.251   2.375  -1.501  0.00  0.00    +0.230 A 
ATOM      4  N   LIG    1       -6.372   1.950  -2.372  0.00  0.00    -0.370 NA
ATOM      5  O   LIG    1       -5.282   1.838  -1.852  0.00  0.00    +0.100 OA
ENDROOT
BRANCH   1  13
ATOM      6  C   LIG    1        0.057   2.365   4.846  0.00  0.00    +0.140 C 
ATOM      7  C   LIG    1       -0.696   2.200   3.552  0.00  0.00    +0.190 A 
ATOM      8  C   LIG    1       -0.025   1.754   2.423  0.00  0.00    -0.030 A 
ATOM      9  C   LIG    1       -0.711   1.603   1.240  0.00  0.00    +0.020 A 
ATOM     10  C   LIG    1       -2.091   1.914   1.209  0.00  0.00    -0.140 A 
ATOM     11  C   LIG    1       -2.697   2.353   2.394  0.00  0.00    +0.070 A 
ATOM     12  S   LIG    1       -4.405   2.663   2.097  0.00  0.00    +0.250 S 
ATOM     13  C   LIG    1       -4.251   2.192   0.414  0.00  0.00    -0.150 A 
ATOM     14  C   LIG    1       -2.994   1.834   0.136  0.00  0.00    -0.010 A 
ATOM     15  C   LIG    1       -2.572   1.382  -1.238  0.00  0.00    +0.130 C 
ATOM     16  C   LIG    1       -0.005   1.121  -0.001  0.00  0.00    +0.130 C 
ATOM     17  N   LIG    1       -1.979   2.480   3.510  0.00  0.00    -0.470 NA
ENDBRANCH   1  13
BRANCH   3  18
ATOM     18  C   LIG    1       -8.689   2.634  -1.760  0.00  0.00    -0.030 A 
ATOM     19  C   LIG    1       -9.514   3.082  -0.729  0.00  0.00    +0.070 A 
ATOM     20  C   LIG    1      -10.847   3.328  -0.970  0.00  0.00    +0.030 A 
ATOM     21  C   LIG    1      -11.375   3.118  -2.244  0.00  0.00    -0.020 A 
ATOM     22  C   LIG    1      -10.552   2.664  -3.274  0.00  0.00    +0.020 A 
ATOM     23  C   LIG    1       -9.217   2.424  -3.033  0.00  0.00    +0.050 A 
BRANCH  21  24
ATOM     24  C   LIG    1      -12.813   3.377  -2.502  0.00  0.00    -0.050 A 
ATOM     25  C   LIG    1      -13.342   3.173  -3.775  0.00  0.00    +0.020 A 
ATOM     26  C   LIG    1      -14.681   3.411  -4.009  0.00  0.00    +0.010 A 
ATOM     27  C   LIG    1      -15.495   3.861  -2.985  0.00  0.00    +0.010 A 
ATOM     28  C   LIG    1      -14.975   4.069  -1.721  0.00  0.00    +0.010 A 
ATOM     29  C   LIG    1      -13.638   3.830  -1.474  0.00  0.00    +0.020 A 
ENDBRANCH  21  24
ENDBRANCH   3  18
TORSDOF 3
