REMARK  Name = ZINCpe000027pH7Q.1
REMARK                            x       y       z     vdW  Elec       q    Type
REMARK                         _______ _______ _______ _____ _____    ______ ____
ROOT
ATOM      1  C   LIG    1        4.300  -1.946  -0.221  0.00  0.00    +0.010 C 
ATOM      2  C   LIG    1        5.010  -1.714   1.120  0.00  0.00    +0.330 C 
ATOM      3  N   LIG    1        4.635  -0.375   1.599  0.00  0.00    -0.450 N 
ATOM      4  C   LIG    1        3.887  -0.060   2.694  0.00  0.00    +0.140 A 
ATOM      5  C   LIG    1        3.785   1.286   2.716  0.00  0.00    +0.150 A 
ATOM      6  N   LIG    1        4.460   1.773   1.661  0.00  0.00    -0.470 NA
ATOM      7  C   LIG    1        4.976   0.784   0.997  0.00  0.00    +0.170 A 
ATOM      8  C   LIG    1        5.838   0.851  -0.253  0.00  0.00    +0.430 C 
ATOM      9  N   LIG    1        5.106   0.145  -1.317  0.00  0.00    -0.610 N 
ATOM     10  C   LIG    1        4.460   0.854  -2.265  0.00  0.00    +0.570 C 
ATOM     11  O   LIG    1        3.920   0.280  -3.190  0.00  0.00    -0.510 OA
ATOM     12  C   LIG    1        5.072  -1.307  -1.358  0.00  0.00    +0.320 C 
ENDROOT
BRANCH  10  13
ATOM     13  C   LIG    1        4.409   2.327  -2.178  0.00  0.00    -0.170 A 
ATOM     14  C   LIG    1        3.990   2.944  -0.994  0.00  0.00    +0.130 A 
ATOM     15  C   LIG    1        3.941   4.317  -0.905  0.00  0.00    +0.000 A 
ATOM     16  C   LIG    1        4.305   5.102  -1.992  0.00  0.00    +0.180 A 
ATOM     17  C   LIG    1        4.726   4.493  -3.188  0.00  0.00    -0.230 A 
ATOM     18  C   LIG    1        4.782   3.101  -3.273  0.00  0.00    +0.150 A 
BRANCH  17  19
ATOM     19  C   LIG    1        5.112   5.319  -4.339  0.00  0.00    +0.500 C 
ATOM     20  O   LIG    1        5.476   4.792  -5.369  0.00  0.00    -0.460 OA
ENDBRANCH  17  19
BRANCH  16  21
ATOM     21  O   LIG    1        4.255   6.452  -1.899  0.00  0.00    -0.490 OA
ATOM     22  H   LIG    1        5.075   6.855  -1.584  0.00  0.00    +0.400 HD
ENDBRANCH  16  21
ENDBRANCH  10  13
BRANCH   1  23
ATOM     23  C   LIG    1        4.185  -3.428  -0.471  0.00  0.00    +0.470 C 
ATOM     24  O   LIG    1        4.676  -3.913  -1.463  0.00  0.00    -0.490 OA
BRANCH  23  26
ATOM     25  C   LIG    1        3.466  -5.627   0.103  0.00  0.00    +0.280 C 
ATOM     26  O   LIG    1        3.537  -4.209   0.408  0.00  0.00    -0.360 OA
ENDBRANCH  23  26
ENDBRANCH   1  23
TORSDOF 5
