REMARK  Name = ZINCkj00000GeThM.0
REMARK                            x       y       z     vdW  Elec       q    Type
REMARK                         _______ _______ _______ _____ _____    ______ ____
ROOT
ATOM      1  C   LIG    1       -2.063   0.896   1.942  0.00  0.00    +0.250 C 
ATOM      2  C   LIG    1       -2.985   1.606   2.917  0.00  0.00    +0.280 C 
ATOM      3  N   LIG    1       -2.270   2.632   3.685  0.00  0.00    -0.390 N 
ATOM      4  C   LIG    1       -3.305   3.349   4.496  0.00  0.00    +0.280 C 
ATOM      5  C   LIG    1       -4.086   4.174   3.446  0.00  0.00    +0.070 C 
ATOM      6  C   LIG    1       -3.077   4.397   2.292  0.00  0.00    +0.080 C 
ATOM      7  C   LIG    1       -1.781   3.686   2.773  0.00  0.00    +0.180 C 
ATOM      8  C   LIG    1       -0.939   3.193   1.648  0.00  0.00    +0.310 C 
ATOM      9  H   LIG    1       -1.533   2.242   4.254  0.00  0.00    +0.440 HD
ATOM     10  N   LIG    1       -1.116   1.797   1.321  0.00  0.00    -1.000 NA
ENDROOT
BRANCH  10  11
ATOM     11  S   LIG    1       -0.144   1.171   0.135  0.00  0.00    +2.700 S 
ATOM     12  O   LIG    1        1.064   1.918   0.170  0.00  0.00    -0.930 OA
ATOM     13  O   LIG    1       -0.189  -0.242   0.284  0.00  0.00    -0.930 OA
BRANCH  11  14
ATOM     14  C   LIG    1       -0.909   1.532  -1.410  0.00  0.00    -0.750 A 
ATOM     15  C   LIG    1       -0.718   2.764  -2.017  0.00  0.00    +0.170 A 
ATOM     16  C   LIG    1       -1.338   3.004  -3.233  0.00  0.00    -0.040 A 
ATOM     17  C   LIG    1       -2.122   2.015  -3.797  0.00  0.00    +0.330 A 
ATOM     18  N   LIG    1       -2.281   0.854  -3.191  0.00  0.00    -0.490 NA
ATOM     19  C   LIG    1       -1.702   0.589  -2.037  0.00  0.00    +0.370 A 
ENDBRANCH  11  14
ENDBRANCH  10  11
BRANCH   1  21
ATOM     20  C   LIG    1       -3.868  -0.770   1.488  0.00  0.00    +0.060 C 
ATOM     21  C   LIG    1       -2.909   0.237   0.851  0.00  0.00    +0.010 C 
ENDBRANCH   1  21
TORSDOF 3
