REMARK  Name = ZINCkj00000GeThM.1
REMARK                            x       y       z     vdW  Elec       q    Type
REMARK                         _______ _______ _______ _____ _____    ______ ____
ROOT
ATOM      1  C   LIG    1        1.251   2.213   0.002  0.00  0.00    +0.270 C 
ATOM      2  C   LIG    1        2.217   1.605   1.022  0.00  0.00    +0.270 C 
ATOM      3  N   LIG    1        2.296   0.171   0.774  0.00  0.00    -0.390 N 
ATOM      4  C   LIG    1        3.230  -0.565   1.643  0.00  0.00    +0.270 C 
ATOM      5  C   LIG    1        2.748  -2.036   1.528  0.00  0.00    +0.070 C 
ATOM      6  C   LIG    1        1.255  -1.936   1.123  0.00  0.00    +0.090 C 
ATOM      7  C   LIG    1        0.974  -0.430   1.097  0.00  0.00    +0.170 C 
ATOM      8  C   LIG    1        0.002  -0.004   0.002  0.00  0.00    +0.350 C 
ATOM      9  H   LIG    1        2.523   0.002  -0.194  0.00  0.00    +0.430 HD
ATOM     10  N   LIG    1       -0.018   1.473   0.010  0.00  0.00    -1.010 NA
ENDROOT
BRANCH  10  11
ATOM     11  S   LIG    1       -1.459   2.288   0.021  0.00  0.00    +2.690 S 
ATOM     12  O   LIG    1       -2.426   1.401  -0.523  0.00  0.00    -0.930 OA
ATOM     13  O   LIG    1       -1.196   3.577  -0.517  0.00  0.00    -0.930 OA
BRANCH  11  14
ATOM     14  C   LIG    1       -1.905   2.536   1.708  0.00  0.00    -0.750 A 
ATOM     15  C   LIG    1       -1.494   3.675   2.383  0.00  0.00    +0.170 A 
ATOM     16  C   LIG    1       -1.869   3.828   3.709  0.00  0.00    -0.040 A 
ATOM     17  C   LIG    1       -2.635   2.847   4.310  0.00  0.00    +0.330 A 
ATOM     18  N   LIG    1       -3.007   1.776   3.637  0.00  0.00    -0.490 NA
ATOM     19  C   LIG    1       -2.674   1.600   2.373  0.00  0.00    +0.370 A 
ENDBRANCH  11  14
ENDBRANCH  10  11
BRANCH   1  21
ATOM     20  C   LIG    1        0.976   2.861  -2.395  0.00  0.00    +0.040 C 
ATOM     21  C   LIG    1        1.875   2.135  -1.393  0.00  0.00    +0.010 C 
ENDBRANCH   1  21
TORSDOF 3
