REMARK  Name = ZINCpk00000eabAD.0
REMARK                            x       y       z     vdW  Elec       q    Type
REMARK                         _______ _______ _______ _____ _____    ______ ____
ROOT
ATOM      1  C   LIG    1        1.268  -0.339  -0.012  0.00  0.00    +0.200 A 
ATOM      2  N   LIG    1        0.002  -0.004   0.002  0.00  0.00    -0.470 NA
ATOM      3  C   LIG    1       -0.016   1.348   0.009  0.00  0.00    +0.210 A 
ATOM      4  N   LIG    1        1.228   1.751  -0.000  0.00  0.00    -0.370 NA
ATOM      5  O   LIG    1        1.975   0.796  -0.013  0.00  0.00    +0.100 OA
ENDROOT
BRANCH   3   6
ATOM      6  C   LIG    1       -1.222   2.213   0.020  0.00  0.00    -0.000 A 
ATOM      7  C   LIG    1       -2.493   1.640   0.018  0.00  0.00    +0.060 A 
ATOM      8  C   LIG    1       -3.612   2.448   0.033  0.00  0.00    +0.040 A 
ATOM      9  C   LIG    1       -3.476   3.824   0.040  0.00  0.00    -0.100 A 
ATOM     10  C   LIG    1       -2.215   4.400   0.037  0.00  0.00    +0.100 A 
ATOM     11  F   LIG    1       -2.088   5.745   0.044  0.00  0.00    -0.130 F 
ATOM     12  C   LIG    1       -4.702   4.700   0.050  0.00  0.00    +0.110 C 
ATOM     13  C   LIG    1       -1.088   3.599   0.027  0.00  0.00    +0.030 A 
ENDBRANCH   3   6
BRANCH   1  14
ATOM     14  C   LIG    1        1.824  -1.739  -0.024  0.00  0.00    +0.360 C 
BRANCH  14  19
ATOM     15  C   LIG    1        1.452  -4.823  -4.473  0.00  0.00    +0.520 C 
ATOM     16  N   LIG    1        1.794  -3.780  -3.692  0.00  0.00    -0.620 N 
ATOM     17  C   LIG    1        3.055  -3.785  -2.935  0.00  0.00    +0.300 C 
ATOM     18  C   LIG    1        2.746  -3.447  -1.472  0.00  0.00    +0.190 C 
ATOM     19  N   LIG    1        1.991  -2.188  -1.413  0.00  0.00    -0.540 NA
ATOM     20  C   LIG    1        0.691  -2.314  -2.085  0.00  0.00    +0.170 C 
ATOM     21  C   LIG    1        0.915  -2.606  -3.573  0.00  0.00    +0.280 C 
ATOM     22  O   LIG    1        2.188  -5.783  -4.559  0.00  0.00    -0.510 OA
BRANCH  15  23
ATOM     23  C   LIG    1        0.154  -4.797  -5.240  0.00  0.00    +0.200 C 
BRANCH  23  25
ATOM     24  C   LIG    1       -1.184  -6.084  -6.755  0.00  0.00    +0.210 C 
ATOM     25  O   LIG    1        0.019  -6.007  -5.988  0.00  0.00    -0.370 OA
ENDBRANCH  23  25
ENDBRANCH  15  23
ENDBRANCH  14  19
ENDBRANCH   1  14
TORSDOF 5
