REMARK  Name = ZINCrH000004oSps.0
REMARK                            x       y       z     vdW  Elec       q    Type
REMARK                         _______ _______ _______ _____ _____    ______ ____
ROOT
ATOM      1  C   LIG    1        0.794  -3.747  -3.286  0.00  0.00    +0.070 C 
ATOM      2  C   LIG    1        2.295  -3.805  -2.995  0.00  0.00    +0.180 C 
ATOM      3  O   LIG    1        2.735  -5.177  -2.879  0.00  0.00    -0.360 OA
ATOM      4  C   LIG    1        3.969  -5.121  -2.129  0.00  0.00    +0.220 C 
ATOM      5  C   LIG    1        3.719  -4.059  -1.034  0.00  0.00    -0.010 C 
ATOM      6  C   LIG    1        2.600  -3.180  -1.622  0.00  0.00    +0.080 C 
ATOM      7  C   LIG    1        1.362  -3.238  -0.730  0.00  0.00    +0.270 C 
ATOM      8  N   LIG    1        1.645  -2.490   0.507  0.00  0.00    -0.630 N 
ATOM      9  C   LIG    1        2.209  -1.137   0.379  0.00  0.00    +0.280 C 
ATOM     10  C   LIG    1        3.427  -1.202  -0.550  0.00  0.00    +0.220 C 
ATOM     11  C   LIG    1        1.396  -3.028   1.717  0.00  0.00    +0.710 C 
ATOM     12  N   LIG    1        0.783  -4.225   1.809  0.00  0.00    -0.650 N 
ATOM     13  H   LIG    1        0.586  -4.732   1.006  0.00  0.00    +0.420 HD
ATOM     14  O   LIG    1        1.724  -2.434   2.726  0.00  0.00    -0.520 OA
ATOM     15  O   LIG    1        3.051  -1.840  -1.774  0.00  0.00    -0.360 OA
ENDROOT
BRANCH  12  16
ATOM     16  C   LIG    1        0.432  -4.732   3.055  0.00  0.00    +0.290 A 
ATOM     17  N   LIG    1        0.647  -4.139   4.183  0.00  0.00    -0.470 NA
ATOM     18  C   LIG    1        0.250  -4.756   5.290  0.00  0.00    +0.100 A 
ATOM     19  C   LIG    1       -0.333  -5.944   5.054  0.00  0.00    -0.240 A 
ATOM     20  C   LIG    1       -0.882  -6.870   6.113  0.00  0.00    +0.140 C 
ATOM     21  C   LIG    1       -0.318  -6.446   7.474  0.00  0.00    +0.010 C 
ATOM     22  C   LIG    1       -0.509  -4.936   7.644  0.00  0.00    +0.030 C 
ATOM     23  C   LIG    1        0.429  -4.193   6.692  0.00  0.00    +0.130 C 
ATOM     24  S   LIG    1       -0.353  -6.227   3.318  0.00  0.00    +0.120 S 
BRANCH  21  25
ATOM     25  C   LIG    1       -1.059  -7.186   8.589  0.00  0.00    -0.060 C 
ATOM     26  C   LIG    1       -2.548  -6.842   8.527  0.00  0.00    +0.020 C 
ATOM     27  C   LIG    1       -0.493  -6.762   9.946  0.00  0.00    +0.030 C 
ATOM     28  C   LIG    1       -0.876  -8.694   8.409  0.00  0.00    +0.030 C 
ENDBRANCH  21  25
ENDBRANCH  12  16
TORSDOF 2
