REMARK  Name = ZINCqH0000004qK2.0
REMARK                            x       y       z     vdW  Elec       q    Type
REMARK                         _______ _______ _______ _____ _____    ______ ____
ROOT
ATOM      1  C   LIG    1       -3.979   0.637  -4.471  0.00  0.00    +0.160 A 
ATOM      2  N   LIG    1       -4.109  -0.382  -5.285  0.00  0.00    -0.470 NA
ATOM      3  C   LIG    1       -4.112   0.143  -6.524  0.00  0.00    +0.190 A 
ATOM      4  N   LIG    1       -3.979   1.430  -6.401  0.00  0.00    -0.370 NA
ATOM      5  O   LIG    1       -3.901   1.734  -5.230  0.00  0.00    +0.100 OA
ENDROOT
BRANCH   1   6
ATOM      6  C   LIG    1       -3.922   0.581  -2.966  0.00  0.00    +0.300 C 
BRANCH   6   8
ATOM      7  C   LIG    1       -5.242   0.892  -0.867  0.00  0.00    +0.040 C 
ATOM      8  C   LIG    1       -5.251   1.072  -2.387  0.00  0.00    +0.040 C 
ENDBRANCH   6   8
BRANCH   6   9
ATOM      9  O   LIG    1       -2.861   1.416  -2.498  0.00  0.00    -0.350 OA
BRANCH   9  10
ATOM     10  C   LIG    1       -1.583   0.777  -2.479  0.00  0.00    +0.140 C 
ATOM     11  C   LIG    1       -0.484   1.830  -2.638  0.00  0.00    +0.030 C 
ATOM     12  C   LIG    1        0.884   1.145  -2.618  0.00  0.00    +0.010 C 
ATOM     13  C   LIG    1        1.068   0.412  -1.288  0.00  0.00    +0.010 C 
ATOM     14  C   LIG    1       -0.031  -0.641  -1.129  0.00  0.00    +0.010 C 
ATOM     15  C   LIG    1       -1.399   0.044  -1.149  0.00  0.00    -0.000 C 
ENDBRANCH   9  10
ENDBRANCH   6   9
ENDBRANCH   1   6
BRANCH   3  16
ATOM     16  C   LIG    1       -4.242  -0.621  -7.816  0.00  0.00    +0.200 C 
BRANCH  16  17
ATOM     17  C   LIG    1       -2.872  -1.016  -8.305  0.00  0.00    +0.520 C 
ATOM     18  N   LIG    1       -2.741  -1.713  -9.451  0.00  0.00    -0.720 N 
ATOM     19  H   LIG    1       -3.528  -1.960  -9.962  0.00  0.00    +0.400 HD
ATOM     20  O   LIG    1       -1.888  -0.708  -7.667  0.00  0.00    -0.530 OA
BRANCH  18  21
ATOM     21  C   LIG    1       -1.409  -2.097  -9.927  0.00  0.00    +0.320 C 
BRANCH  21  22
ATOM     22  C   LIG    1       -1.538  -2.861 -11.219  0.00  0.00    -0.110 A 
ATOM     23  C   LIG    1       -1.669  -4.237 -11.198  0.00  0.00    +0.020 A 
ATOM     24  C   LIG    1       -1.792  -4.938 -12.383  0.00  0.00    +0.010 A 
ATOM     25  C   LIG    1       -1.774  -4.264 -13.590  0.00  0.00    +0.010 A 
ATOM     26  C   LIG    1       -1.639  -2.888 -13.611  0.00  0.00    +0.010 A 
ATOM     27  C   LIG    1       -1.521  -2.187 -12.426  0.00  0.00    +0.020 A 
ENDBRANCH  21  22
ENDBRANCH  18  21
ENDBRANCH  16  17
ENDBRANCH   3  16
TORSDOF 8
