REMARK  Name = ZINCqH0000005tsa.0
REMARK                            x       y       z     vdW  Elec       q    Type
REMARK                         _______ _______ _______ _____ _____    ______ ____
ROOT
ATOM      1  C   LIG    1        4.787   1.429   0.057  0.00  0.00    +0.570 C 
ATOM      2  N   LIG    1        3.603   2.067  -0.033  0.00  0.00    -0.660 N 
ATOM      3  H   LIG    1        3.579   3.034  -0.109  0.00  0.00    +0.410 HD
ATOM      4  O   LIG    1        4.824   0.213   0.050  0.00  0.00    -0.510 OA
ENDROOT
BRANCH   2   5
ATOM      5  C   LIG    1        2.409   1.335  -0.017  0.00  0.00    +0.170 A 
ATOM      6  C   LIG    1        2.371   0.084   0.586  0.00  0.00    +0.050 A 
ATOM      7  C   LIG    1        1.188  -0.634   0.598  0.00  0.00    +0.100 A 
ATOM      8  C   LIG    1        0.046  -0.108   0.011  0.00  0.00    +0.060 A 
ATOM      9  O   LIG    1       -1.115  -0.827   0.030  0.00  0.00    -0.310 OA
ATOM     10  C   LIG    1       -1.127  -2.016  -0.762  0.00  0.00    +0.230 C 
ATOM     11  C   LIG    1       -0.523  -3.182   0.004  0.00  0.00    -0.010 C 
ATOM     12  C   LIG    1        0.952  -2.974   0.307  0.00  0.00    +0.230 C 
ATOM     13  C   LIG    1        0.084   1.139  -0.591  0.00  0.00    +0.070 A 
ATOM     14  O   LIG    1        1.137  -1.864   1.189  0.00  0.00    -0.310 OA
ATOM     15  C   LIG    1        1.265   1.859  -0.605  0.00  0.00    -0.060 A 
ATOM     16 CL   LIG    1        1.317   3.422  -1.359  0.00  0.00    -0.050 Cl
ENDBRANCH   2   5
BRANCH   1  20
ATOM     17  C   LIG    1        8.385   3.661   0.368  0.00  0.00    +0.310 A 
ATOM     18  C   LIG    1        7.164   4.322   0.274  0.00  0.00    -0.050 A 
ATOM     19  C   LIG    1        5.996   3.602   0.173  0.00  0.00    +0.150 A 
ATOM     20  C   LIG    1        6.037   2.204   0.165  0.00  0.00    -0.200 A 
ATOM     21  C   LIG    1        7.265   1.543   0.264  0.00  0.00    +0.230 A 
ATOM     22  C   LIG    1        8.430   2.270   0.361  0.00  0.00    -0.140 A 
BRANCH  17  24
ATOM     23  C   LIG    1        9.512   5.852   0.593  0.00  0.00    +0.300 C 
ATOM     24  N   LIG    1        9.564   4.393   0.470  0.00  0.00    -0.710 N 
ATOM     25  H   LIG    1       10.420   3.937   0.461  0.00  0.00    +0.420 HD
ENDBRANCH  17  24
BRANCH  22  26
ATOM     26  N   LIG    1        9.731   1.571   0.462  0.00  0.00    +0.050 N 
ATOM     27  O   LIG    1       10.768   2.210   0.455  0.00  0.00    -0.200 OA
ATOM     28  O   LIG    1        9.764   0.357   0.551  0.00  0.00    -0.140 OA
ENDBRANCH  22  26
ENDBRANCH   1  20
TORSDOF 4
