REMARK  Name = ZINCrH000004qWxv.1
REMARK                            x       y       z     vdW  Elec       q    Type
REMARK                         _______ _______ _______ _____ _____    ______ ____
ROOT
ATOM      1  C   LIG    1        2.999   1.798   0.490  0.00  0.00    +0.240 A 
ATOM      2  N   LIG    1        3.265   0.510   0.362  0.00  0.00    -0.450 NA
ATOM      3  C   LIG    1        4.607   0.428   0.256  0.00  0.00    +0.220 A 
ATOM      4  N   LIG    1        5.082   1.645   0.333  0.00  0.00    -0.320 NA
ATOM      5  O   LIG    1        4.178   2.442   0.467  0.00  0.00    +0.120 OA
ENDROOT
BRANCH   1  10
ATOM      6  C   LIG    1        0.009   3.892   0.887  0.00  0.00    +0.150 A 
ATOM      7  N   LIG    1       -0.545   2.697   0.812  0.00  0.00    -0.230 NA
ATOM      8  N   LIG    1        0.473   1.747   0.662  0.00  0.00    -0.440 N 
ATOM      9  H   LIG    1        0.350   0.787   0.584  0.00  0.00    +0.450 HD
ATOM     10  C   LIG    1        1.668   2.409   0.638  0.00  0.00    +0.150 A 
ATOM     11  C   LIG    1        1.401   3.743   0.776  0.00  0.00    -0.020 A 
BRANCH   6  16
ATOM     12  C   LIG    1       -1.761   9.011   1.470  0.00  0.00    +0.140 C 
ATOM     13  C   LIG    1       -1.533   7.529   1.321  0.00  0.00    -0.170 A 
ATOM     14  C   LIG    1       -2.495   6.602   1.305  0.00  0.00    -0.010 A 
ATOM     15  C   LIG    1       -2.051   5.303   1.157  0.00  0.00    +0.060 A 
ATOM     16  C   LIG    1       -0.715   5.173   1.052  0.00  0.00    -0.140 A 
ATOM     17  S   LIG    1        0.038   6.759   1.149  0.00  0.00    +0.150 S 
ENDBRANCH   6  16
ENDBRANCH   1  10
BRANCH   3  18
ATOM     18  C   LIG    1        5.401  -0.815   0.089  0.00  0.00    +0.020 A 
ATOM     19  C   LIG    1        5.281  -1.871   0.995  0.00  0.00    +0.040 A 
ATOM     20  C   LIG    1        6.037  -3.010   0.803  0.00  0.00    +0.270 A 
ATOM     21  N   LIG    1        6.865  -3.112  -0.219  0.00  0.00    -0.440 NA
ATOM     22  C   LIG    1        7.013  -2.143  -1.100  0.00  0.00    +0.260 A 
ATOM     23  C   LIG    1        6.289  -0.965  -0.987  0.00  0.00    +0.150 A 
BRANCH  23  24
ATOM     24  N   LIG    1        6.445   0.059  -1.929  0.00  0.00    -0.330 N 
ATOM     25  C   LIG    1        7.354   0.087  -2.937  0.00  0.00    +0.230 A 
ATOM     26  C   LIG    1        7.175   1.243  -3.618  0.00  0.00    -0.090 A 
ATOM     27  C   LIG    1        6.133   1.948  -3.006  0.00  0.00    +0.260 A 
ATOM     28  N   LIG    1        5.695   1.241  -1.995  0.00  0.00    -0.290 NA
ENDBRANCH  23  24
ENDBRANCH   3  18
TORSDOF 4
