REMARK  Name = ZINCrH000004qWxv.0
REMARK                            x       y       z     vdW  Elec       q    Type
REMARK                         _______ _______ _______ _____ _____    ______ ____
ROOT
ATOM      1  C   LIG    1       -1.738   4.425  -1.134  0.00  0.00    +0.260 A 
ATOM      2  N   LIG    1       -3.034   4.355  -0.897  0.00  0.00    -0.430 NA
ATOM      3  C   LIG    1       -3.412   5.612  -0.584  0.00  0.00    +0.200 A 
ATOM      4  N   LIG    1       -2.345   6.368  -0.647  0.00  0.00    -0.320 NA
ATOM      5  O   LIG    1       -1.377   5.705  -0.954  0.00  0.00    +0.110 OA
ENDROOT
BRANCH   1   8
ATOM      6  C   LIG    1        0.978   2.149  -2.094  0.00  0.00    +0.170 A 
ATOM      7  C   LIG    1        0.530   3.398  -1.769  0.00  0.00    -0.050 A 
ATOM      8  C   LIG    1       -0.851   3.306  -1.519  0.00  0.00    +0.140 A 
ATOM      9  N   LIG    1       -1.221   2.052  -1.692  0.00  0.00    -0.210 NA
ATOM     10  N   LIG    1       -0.092   1.303  -2.048  0.00  0.00    -0.450 N 
ATOM     11  H   LIG    1       -0.075   0.351  -2.233  0.00  0.00    +0.450 HD
BRANCH   6  16
ATOM     12  C   LIG    1        6.291   1.745  -3.201  0.00  0.00    +0.140 C 
ATOM     13  C   LIG    1        4.814   1.591  -2.943  0.00  0.00    -0.170 A 
ATOM     14  C   LIG    1        4.134   0.444  -3.030  0.00  0.00    +0.000 A 
ATOM     15  C   LIG    1        2.787   0.540  -2.750  0.00  0.00    +0.040 A 
ATOM     16  C   LIG    1        2.365   1.782  -2.432  0.00  0.00    -0.160 A 
ATOM     17  S   LIG    1        3.725   2.896  -2.490  0.00  0.00    +0.180 S 
ENDBRANCH   6  16
ENDBRANCH   1   8
BRANCH   3  18
ATOM     18  C   LIG    1       -4.784   6.056  -0.233  0.00  0.00    +0.040 A 
ATOM     19  C   LIG    1       -5.866   5.177  -0.316  0.00  0.00    +0.040 A 
ATOM     20  C   LIG    1       -7.126   5.630   0.020  0.00  0.00    +0.290 A 
ATOM     21  N   LIG    1       -7.319   6.874   0.415  0.00  0.00    -0.450 NA
ATOM     22  C   LIG    1       -6.329   7.739   0.509  0.00  0.00    +0.280 A 
ATOM     23  C   LIG    1       -5.029   7.369   0.196  0.00  0.00    +0.130 A 
BRANCH  23  24
ATOM     24  N   LIG    1       -3.981   8.290   0.303  0.00  0.00    -0.340 N 
ATOM     25  C   LIG    1       -3.921   9.507  -0.297  0.00  0.00    +0.240 A 
ATOM     26  C   LIG    1       -2.750  10.083   0.061  0.00  0.00    -0.100 A 
ATOM     27  C   LIG    1       -2.069   9.192   0.898  0.00  0.00    +0.250 A 
ATOM     28  N   LIG    1       -2.804   8.120   1.044  0.00  0.00    -0.260 NA
ENDBRANCH  23  24
ENDBRANCH   3  18
TORSDOF 4
