REMARK  Name = ZINCtV000002D0LW.0
REMARK                            x       y       z     vdW  Elec       q    Type
REMARK                         _______ _______ _______ _____ _____    ______ ____
ROOT
ATOM      1  S   LIG    1        1.886   3.422   0.002  0.00  0.00    +0.070 S 
ENDROOT
BRANCH   1   2
ATOM      2  C   LIG    1        1.290   1.764  -0.001  0.00  0.00    +0.140 A 
ATOM      3  N   LIG    1        2.023   0.673  -0.014  0.00  0.00    -0.240 NA
ATOM      4  N   LIG    1        1.270  -0.371  -0.012  0.00  0.00    -0.240 NA
ATOM      5  C   LIG    1        0.002  -0.004   0.002  0.00  0.00    +0.210 A 
ATOM      6  C   LIG    1       -1.215  -0.717   0.010  0.00  0.00    +0.010 A 
ATOM      7  C   LIG    1       -2.388  -0.029   0.025  0.00  0.00    +0.120 A 
ATOM      8  C   LIG    1       -2.374   1.379   0.033  0.00  0.00    -0.190 A 
ATOM      9  C   LIG    1       -1.205   2.050   0.029  0.00  0.00    +0.340 A 
ATOM     10 CL   LIG    1       -1.216  -2.453   0.002  0.00  0.00    +0.010 Cl
ATOM     11  N   LIG    1       -0.017   1.375   0.010  0.00  0.00    -0.380 N 
BRANCH   8  12
ATOM     12  C   LIG    1       -3.675   2.140   0.049  0.00  0.00    +0.530 C 
ATOM     13  F   LIG    1       -3.468   3.404   0.612  0.00  0.00    -0.170 F 
ATOM     14  F   LIG    1       -4.615   1.439   0.811  0.00  0.00    -0.160 F 
ATOM     15  F   LIG    1       -4.147   2.283  -1.259  0.00  0.00    -0.160 F 
ENDBRANCH   8  12
ENDBRANCH   1   2
BRANCH   1  17
ATOM     16  C   LIG    1        4.134   2.537   1.284  0.00  0.00    +0.090 C 
ATOM     17  C   LIG    1        3.687   3.208  -0.016  0.00  0.00    +0.000 C 
BRANCH  17  18
ATOM     18  C   LIG    1        4.351   4.555  -0.140  0.00  0.00    +0.420 C 
ATOM     19  O   LIG    1        3.773   5.553   0.235  0.00  0.00    -0.430 OA
BRANCH  18  20
ATOM     20  C   LIG    1        5.702   4.660  -0.716  0.00  0.00    -0.170 A 
ATOM     21  C   LIG    1        6.374   3.510  -1.144  0.00  0.00    +0.060 A 
ATOM     22  C   LIG    1        7.638   3.617  -1.686  0.00  0.00    +0.010 A 
ATOM     23  C   LIG    1        8.244   4.856  -1.798  0.00  0.00    -0.030 A 
ATOM     24  C   LIG    1        7.587   5.997  -1.372  0.00  0.00    +0.000 A 
ATOM     25  C   LIG    1        6.322   5.908  -0.832  0.00  0.00    +0.090 A 
BRANCH  23  26
ATOM     26  C   LIG    1        9.627   4.963  -2.387  0.00  0.00    -0.040 C 
ATOM     27  C   LIG    1        9.585   5.854  -3.630  0.00  0.00    +0.040 C 
ATOM     28  C   LIG    1       10.125   3.569  -2.776  0.00  0.00    +0.030 C 
ATOM     29  C   LIG    1       10.576   5.574  -1.354  0.00  0.00    +0.040 C 
ENDBRANCH  23  26
ENDBRANCH  18  20
ENDBRANCH  17  18
ENDBRANCH   1  17
TORSDOF 6
