REMARK  Name = ZINCvU000000060S.0
REMARK                            x       y       z     vdW  Elec       q    Type
REMARK                         _______ _______ _______ _____ _____    ______ ____
ROOT
ATOM      1  C   LIG    1       -2.541   3.022  -0.250  0.00  0.00    +0.090 A 
ATOM      2  C   LIG    1       -1.759   3.860  -1.020  0.00  0.00    +0.000 A 
ATOM      3  C   LIG    1       -1.395   5.120  -0.528  0.00  0.00    -0.090 A 
ATOM      4  C   LIG    1       -1.817   5.518   0.745  0.00  0.00    +0.080 A 
ATOM      5  C   LIG    1       -2.593   4.673   1.508  0.00  0.00    -0.040 A 
ATOM      6  C   LIG    1       -2.958   3.427   1.018  0.00  0.00    +0.130 A 
ENDROOT
BRANCH   3   7
ATOM      7  C   LIG    1       -0.567   6.018  -1.344  0.00  0.00    +0.240 C 
ATOM      8  C   LIG    1       -0.878   7.337  -1.429  0.00  0.00    -0.250 C 
ATOM      9  S   LIG    1        0.098   8.639  -2.136  0.00  0.00    +0.110 S 
ATOM     10  C   LIG    1       -1.084   9.913  -1.790  0.00  0.00    +0.370 C 
ATOM     11  N   LIG    1       -2.142   9.309  -1.169  0.00  0.00    -0.570 N 
ATOM     12  C   LIG    1       -3.305  10.093  -0.744  0.00  0.00    +0.320 C 
ATOM     13  N   LIG    1       -0.967  11.190  -2.076  0.00  0.00    -0.470 NA
ATOM     14  C   LIG    1       -2.098   8.003  -0.962  0.00  0.00    +0.550 C 
ATOM     15  O   LIG    1       -3.004   7.398  -0.420  0.00  0.00    -0.470 OA
BRANCH  13  16
ATOM     16  C   LIG    1       -1.857  12.091  -1.558  0.00  0.00    +0.100 A 
ATOM     17  C   LIG    1       -2.720  12.792  -2.405  0.00  0.00    +0.000 A 
ATOM     18  C   LIG    1       -3.618  13.694  -1.875  0.00  0.00    +0.030 A 
ATOM     19  C   LIG    1       -3.658  13.916  -0.509  0.00  0.00    +0.000 A 
ATOM     20  C   LIG    1       -2.802  13.230   0.335  0.00  0.00    +0.030 A 
ATOM     21  C   LIG    1       -1.903  12.320  -0.181  0.00  0.00    -0.020 A 
ENDBRANCH  13  16
ENDBRANCH   3   7
BRANCH   1  23
ATOM     22  C   LIG    1       -2.438   1.451  -2.033  0.00  0.00    +0.240 C 
ATOM     23  O   LIG    1       -2.900   1.800  -0.726  0.00  0.00    -0.300 OA
ENDBRANCH   1  23
BRANCH   6  24
ATOM     24  O   LIG    1       -3.723   2.598   1.775  0.00  0.00    -0.290 OA
BRANCH  24  25
ATOM     25  C   LIG    1       -4.115   3.075   3.064  0.00  0.00    +0.240 C 
BRANCH  25  26
ATOM     26  C   LIG    1       -4.952   2.028   3.753  0.00  0.00    -0.100 A 
ATOM     27  C   LIG    1       -6.326   2.028   3.596  0.00  0.00    +0.030 A 
ATOM     28  C   LIG    1       -7.093   1.065   4.224  0.00  0.00    +0.010 A 
ATOM     29  C   LIG    1       -6.489   0.108   5.018  0.00  0.00    +0.010 A 
ATOM     30  C   LIG    1       -5.116   0.111   5.179  0.00  0.00    +0.010 A 
ATOM     31  C   LIG    1       -4.348   1.071   4.546  0.00  0.00    +0.030 A 
ENDBRANCH  25  26
ENDBRANCH  24  25
ENDBRANCH   6  24
TORSDOF 6
