REMARK  Name = ZINCvU0000000Cuo.0
REMARK                            x       y       z     vdW  Elec       q    Type
REMARK                         _______ _______ _______ _____ _____    ______ ____
ROOT
ATOM      1  C   LIG    1        0.342   7.955  -7.207  0.00  0.00    +0.130 C 
ENDROOT
BRANCH   1   5
ATOM      2  C   LIG    1       -3.019   8.816  -9.701  0.00  0.00    +0.130 A 
ATOM      3  C   LIG    1       -2.485   9.806  -8.889  0.00  0.00    -0.020 A 
ATOM      4  C   LIG    1       -1.398   9.525  -8.084  0.00  0.00    +0.070 A 
ATOM      5  C   LIG    1       -0.843   8.259  -8.086  0.00  0.00    -0.110 A 
ATOM      6  C   LIG    1       -1.371   7.272  -8.899  0.00  0.00    +0.060 A 
ATOM      7  C   LIG    1       -2.461   7.546  -9.702  0.00  0.00    -0.080 A 
BRANCH   2   8
ATOM      8  O   LIG    1       -4.088   9.090 -10.495  0.00  0.00    -0.310 OA
BRANCH   8   9
ATOM      9  C   LIG    1       -4.585   8.023 -11.304  0.00  0.00    +0.300 C 
BRANCH   9  16
ATOM     10  C   LIG    1       -7.721   7.954 -10.475  0.00  0.00    +0.160 C 
ATOM     11  C   LIG    1       -7.130   8.483 -11.756  0.00  0.00    +0.040 A 
ATOM     12  N   LIG    1       -7.779   9.009 -12.755  0.00  0.00    -0.360 NA
ATOM     13  O   LIG    1       -7.032   9.338 -13.647  0.00  0.00    +0.100 OA
ATOM     14  C   LIG    1       -5.754   9.069 -13.344  0.00  0.00    +0.000 A 
ATOM     15  C   LIG    1       -4.546   9.337 -14.205  0.00  0.00    +0.190 C 
ATOM     16  C   LIG    1       -5.762   8.510 -12.110  0.00  0.00    -0.220 A 
ENDBRANCH   9  16
ENDBRANCH   8   9
ENDBRANCH   2   8
ENDBRANCH   1   5
BRANCH   1  17
ATOM     17  C   LIG    1       -0.140   7.467  -5.865  0.00  0.00    +0.500 C 
ATOM     18  N   LIG    1        0.751   7.133  -4.910  0.00  0.00    -0.640 N 
ATOM     19  H   LIG    1        1.702   7.207  -5.086  0.00  0.00    +0.420 HD
ATOM     20  O   LIG    1       -1.329   7.375  -5.644  0.00  0.00    -0.460 OA
BRANCH  18  21
ATOM     21  C   LIG    1        0.306   6.683  -3.672  0.00  0.00    +0.270 A 
ATOM     22  N   LIG    1       -0.938   6.549  -3.334  0.00  0.00    -0.470 NA
ATOM     23  C   LIG    1       -1.181   6.107  -2.114  0.00  0.00    +0.250 A 
ATOM     24  C   LIG    1       -0.091   5.857  -1.387  0.00  0.00    -0.230 A 
ATOM     25  S   LIG    1        1.321   6.234  -2.371  0.00  0.00    +0.120 S 
BRANCH  24  26
ATOM     26  C   LIG    1       -0.070   5.347   0.031  0.00  0.00    +0.190 C 
BRANCH  26  27
ATOM     27  C   LIG    1       -0.050   3.840   0.023  0.00  0.00    -0.080 A 
ATOM     28  C   LIG    1        1.156   3.165   0.008  0.00  0.00    +0.010 A 
ATOM     29  C   LIG    1        1.175   1.783   0.000  0.00  0.00    +0.000 A 
ATOM     30  C   LIG    1       -0.013   1.076   0.008  0.00  0.00    +0.000 A 
ATOM     31  C   LIG    1       -1.219   1.751   0.017  0.00  0.00    +0.000 A 
ATOM     32  C   LIG    1       -1.238   3.133   0.030  0.00  0.00    +0.010 A 
ENDBRANCH  26  27
ENDBRANCH  24  26
ENDBRANCH  18  21
ENDBRANCH   1  17
TORSDOF 8
