REMARK  Name = ZINCpe000000UUUF.0
REMARK                            x       y       z     vdW  Elec       q    Type
REMARK                         _______ _______ _______ _____ _____    ______ ____
ROOT
ATOM      1  N   LIG    1       -2.510  -2.708   0.011  0.00  0.00    -0.700 N 
ATOM      2  H   LIG    1       -2.947  -2.940  -0.823  0.00  0.00    +0.410 HD
ATOM      3  C   LIG    1       -3.166  -2.852   1.180  0.00  0.00    +0.570 C 
ATOM      4  O   LIG    1       -2.618  -2.561   2.224  0.00  0.00    -0.510 OA
ENDROOT
BRANCH   3   5
ATOM      5  C   LIG    1       -4.556  -3.365   1.190  0.00  0.00    -0.060 A 
ATOM      6  C   LIG    1       -5.205  -3.705  -0.001  0.00  0.00    +0.000 A 
ATOM      7  C   LIG    1       -6.501  -4.180   0.051  0.00  0.00    +0.320 A 
ATOM      8  N   LIG    1       -7.128  -4.316   1.202  0.00  0.00    -0.490 NA
ATOM      9  C   LIG    1       -6.554  -4.006   2.353  0.00  0.00    +0.360 A 
ATOM     10  C   LIG    1       -5.251  -3.527   2.390  0.00  0.00    +0.060 A 
BRANCH   9  11
ATOM     11  N   LIG    1       -7.265  -4.169   3.546  0.00  0.00    -0.340 N 
ATOM     12  C   LIG    1       -8.527  -4.625   3.679  0.00  0.00    +0.520 A 
ATOM     13  N   LIG    1       -8.824  -4.628   4.953  0.00  0.00    -0.540 NA
ATOM     14  C   LIG    1       -7.785  -4.185   5.661  0.00  0.00    +0.450 A 
ATOM     15  N   LIG    1       -6.806  -3.897   4.845  0.00  0.00    -0.310 NA
ENDBRANCH   9  11
ENDBRANCH   3   5
BRANCH   1  16
ATOM     16  C   LIG    1       -1.135  -2.201   0.001  0.00  0.00    +0.300 C 
BRANCH  16  17
ATOM     17  C   LIG    1       -0.430  -2.687  -1.239  0.00  0.00    -0.100 A 
ATOM     18  C   LIG    1       -1.103  -2.729  -2.445  0.00  0.00    +0.010 A 
ATOM     19  C   LIG    1       -0.455  -3.171  -3.584  0.00  0.00    +0.020 A 
ATOM     20  C   LIG    1        0.864  -3.579  -3.513  0.00  0.00    +0.020 A 
ATOM     21  C   LIG    1        1.536  -3.541  -2.306  0.00  0.00    +0.020 A 
ATOM     22  C   LIG    1        0.889  -3.095  -1.168  0.00  0.00    +0.030 A 
ENDBRANCH  16  17
BRANCH  16  26
ATOM     23  C   LIG    1       -0.018   1.461   0.010  0.00  0.00    +0.290 C 
ATOM     24  N   LIG    1        0.002  -0.004   0.002  0.00  0.00    -0.730 N 
ATOM     25  H   LIG    1        0.849  -0.478  -0.009  0.00  0.00    +0.400 HD
ATOM     26  C   LIG    1       -1.156  -0.694   0.009  0.00  0.00    +0.510 C 
ATOM     27  O   LIG    1       -2.214  -0.102   0.023  0.00  0.00    -0.520 OA
ENDBRANCH  16  26
ENDBRANCH   1  16
TORSDOF 5
