REMARK  Name = ZINCrD0000073nKV.0
REMARK                            x       y       z     vdW  Elec       q    Type
REMARK                         _______ _______ _______ _____ _____    ______ ____
ROOT
ATOM      1  C   LIG    1        1.886   3.686   1.424  0.00  0.00    +0.460 C 
ATOM      2  O   LIG    1        1.658   2.933   2.341  0.00  0.00    -0.500 OA
ENDROOT
BRANCH   1   3
ATOM      3  O   LIG    1        2.286   4.943   1.672  0.00  0.00    -0.360 OA
BRANCH   3   4
ATOM      4  C   LIG    1        2.423   5.329   3.065  0.00  0.00    +0.300 C 
BRANCH   4  10
ATOM      5  C   LIG    1        3.079   7.356   4.389  0.00  0.00    +0.170 A 
ATOM      6  C   LIG    1        3.499   8.680   4.473  0.00  0.00    -0.080 A 
ATOM      7  C   LIG    1        3.716   9.407   3.324  0.00  0.00    +0.110 A 
ATOM      8  C   LIG    1        3.514   8.809   2.074  0.00  0.00    -0.210 A 
ATOM      9  C   LIG    1        3.096   7.474   2.001  0.00  0.00    +0.150 A 
ATOM     10  C   LIG    1        2.878   6.763   3.147  0.00  0.00    -0.140 A 
BRANCH   8  11
ATOM     11  C   LIG    1        3.743   9.577   0.844  0.00  0.00    +0.400 C 
ATOM     12  O   LIG    1        3.567   9.057  -0.238  0.00  0.00    -0.460 OA
ATOM     13  C   LIG    1        4.197  11.012   0.925  0.00  0.00    +0.070 C 
ENDBRANCH   8  11
BRANCH   5  15
ATOM     14  C   LIG    1        3.091   7.312   6.764  0.00  0.00    +0.250 C 
ATOM     15  O   LIG    1        2.866   6.642   5.522  0.00  0.00    -0.310 OA
ENDBRANCH   5  15
ENDBRANCH   4  10
ENDBRANCH   3   4
ENDBRANCH   1   3
BRANCH   1  16
ATOM     16  C   LIG    1        1.721   3.214   0.002  0.00  0.00    +0.210 C 
BRANCH  16  17
ATOM     17  C   LIG    1        1.267   1.777  -0.001  0.00  0.00    -0.220 A 
ATOM     18  C   LIG    1       -0.016   1.348   0.009  0.00  0.00    +0.260 A 
ATOM     19  N   LIG    1        0.002  -0.004   0.002  0.00  0.00    -0.320 N 
ATOM     20  N   LIG    1        1.341  -0.416  -0.013  0.00  0.00    -0.290 NA
ATOM     21  C   LIG    1        2.098   0.651  -0.015  0.00  0.00    +0.270 A 
BRANCH  19  22
ATOM     22  C   LIG    1       -1.120  -0.844   0.008  0.00  0.00    +0.160 A 
ATOM     23  C   LIG    1       -2.397  -0.300   0.029  0.00  0.00    -0.010 A 
ATOM     24  C   LIG    1       -3.500  -1.130   0.029  0.00  0.00    +0.040 A 
ATOM     25  C   LIG    1       -3.334  -2.503   0.020  0.00  0.00    +0.000 A 
ATOM     26  C   LIG    1       -2.064  -3.049   0.005  0.00  0.00    +0.040 A 
ATOM     27  C   LIG    1       -0.956  -2.223  -0.001  0.00  0.00    +0.020 A 
ENDBRANCH  19  22
ENDBRANCH  16  17
ENDBRANCH   1  16
TORSDOF 8
