REMARK  Name = ZINCAx0000000bNh.0
REMARK                            x       y       z     vdW  Elec       q    Type
REMARK                         _______ _______ _______ _____ _____    ______ ____
ROOT
ATOM      1  C   LIG    1        5.407  10.133   3.207  0.00  0.00    +0.260 C 
ENDROOT
BRANCH   1   2
ATOM      2  N   LIG    1        4.968   8.859   2.620  0.00  0.00    -0.510 NA
ATOM      3  C   LIG    1        4.577   7.905   3.666  0.00  0.00    +0.190 C 
ATOM      4  C   LIG    1        4.302   6.539   3.029  0.00  0.00    +0.300 C 
ATOM      5  N   LIG    1        3.318   6.716   1.949  0.00  0.00    -0.610 N 
ATOM      6  C   LIG    1        3.579   7.748   0.934  0.00  0.00    +0.280 C 
ATOM      7  C   LIG    1        2.211   5.950   1.889  0.00  0.00    +0.530 C 
ATOM      8  O   LIG    1        2.015   5.101   2.732  0.00  0.00    -0.510 OA
ATOM      9  C   LIG    1        3.880   9.071   1.657  0.00  0.00    +0.190 C 
BRANCH   7  10
ATOM     10  C   LIG    1        1.217   6.149   0.774  0.00  0.00    +0.150 C 
ATOM     11  C   LIG    1        1.867   5.791  -0.569  0.00  0.00    +0.250 C 
ATOM     12  O   LIG    1        0.893   5.977  -1.602  0.00  0.00    -0.300 OA
ATOM     13  C   LIG    1       -0.347   5.466  -1.373  0.00  0.00    +0.040 A 
ATOM     14  C   LIG    1       -1.217   5.286  -2.438  0.00  0.00    +0.030 A 
ATOM     15  C   LIG    1       -2.480   4.768  -2.220  0.00  0.00    +0.020 A 
ATOM     16  C   LIG    1       -2.883   4.439  -0.940  0.00  0.00    +0.020 A 
ATOM     17  C   LIG    1       -2.021   4.614   0.126  0.00  0.00    +0.030 A 
ATOM     18  C   LIG    1       -0.750   5.127  -0.086  0.00  0.00    +0.050 A 
ATOM     19  O   LIG    1        0.091   5.287   0.972  0.00  0.00    -0.280 OA
ENDBRANCH   7  10
ENDBRANCH   1   2
BRANCH   1  22
ATOM     20  N   LIG    1        4.400  11.996   4.486  0.00  0.00    -0.640 N 
ATOM     21  H   LIG    1        5.221  12.493   4.351  0.00  0.00    +0.410 HD
ATOM     22  C   LIG    1        4.252  10.776   3.930  0.00  0.00    +0.480 C 
ATOM     23  O   LIG    1        3.189  10.197   4.013  0.00  0.00    -0.520 OA
BRANCH  20  27
ATOM     24  N   LIG    1        2.260  13.530   6.881  0.00  0.00    -0.320 N 
ATOM     25  N   LIG    1        1.347  13.175   5.879  0.00  0.00    -0.280 NA
ATOM     26  C   LIG    1        2.004  12.594   4.909  0.00  0.00    +0.100 A 
ATOM     27  C   LIG    1        3.362  12.547   5.260  0.00  0.00    -0.000 A 
ATOM     28  C   LIG    1        1.405  12.062   3.633  0.00  0.00    +0.170 C 
ATOM     29  C   LIG    1        3.497  13.132   6.477  0.00  0.00    +0.080 A 
ATOM     30  C   LIG    1        4.783  13.310   7.242  0.00  0.00    +0.160 C 
BRANCH  24  35
ATOM     31  C   LIG    1        1.019  16.157  11.756  0.00  0.00    +0.090 C 
ATOM     32  C   LIG    1        1.349  15.460  10.461  0.00  0.00    -0.080 A 
ATOM     33  C   LIG    1        2.477  15.824   9.749  0.00  0.00    +0.030 A 
ATOM     34  C   LIG    1        2.781  15.186   8.562  0.00  0.00    +0.010 A 
ATOM     35  C   LIG    1        1.953  14.179   8.085  0.00  0.00    +0.150 A 
ATOM     36  C   LIG    1        0.818  13.820   8.799  0.00  0.00    +0.030 A 
ATOM     37  C   LIG    1        0.522  14.457   9.988  0.00  0.00    +0.030 A 
ENDBRANCH  24  35
ENDBRANCH  20  27
ENDBRANCH   1  22
TORSDOF 5
