REMARK  Name = ZINCpk000000omu8.0
REMARK                            x       y       z     vdW  Elec       q    Type
REMARK                         _______ _______ _______ _____ _____    ______ ____
ROOT
ATOM      1  N   LIG    1       -0.971   3.503  -0.014  0.00  0.00    -0.520 NA
ATOM      2  C   LIG    1       -0.028   3.833   1.063  0.00  0.00    +0.190 C 
ATOM      3  C   LIG    1        0.383   5.303   0.946  0.00  0.00    +0.180 C 
ATOM      4  N   LIG    1       -0.815   6.151   1.020  0.00  0.00    -0.530 NA
ATOM      5  C   LIG    1       -1.758   5.821  -0.057  0.00  0.00    +0.190 C 
ATOM      6  C   LIG    1       -2.169   4.351   0.060  0.00  0.00    +0.190 C 
ENDROOT
BRANCH   1   7
ATOM      7  C   LIG    1       -1.331   2.079   0.020  0.00  0.00    +0.160 C 
ATOM      8  C   LIG    1       -2.322   1.831   1.159  0.00  0.00    +0.030 C 
BRANCH   7  11
ATOM      9  N   LIG    1       -2.109   0.389  -1.610  0.00  0.00    -0.730 N 
ATOM     10  H   LIG    1       -1.801  -0.298  -0.998  0.00  0.00    +0.400 HD
ATOM     11  C   LIG    1       -1.965   1.690  -1.291  0.00  0.00    +0.520 C 
ATOM     12  O   LIG    1       -2.350   2.548  -2.057  0.00  0.00    -0.520 OA
BRANCH   9  13
ATOM     13  C   LIG    1       -2.730   0.011  -2.882  0.00  0.00    +0.260 C 
BRANCH  13  15
ATOM     14  C   LIG    1       -3.420  -1.910  -4.324  0.00  0.00    +0.030 C 
ATOM     15  C   LIG    1       -2.771  -1.515  -2.996  0.00  0.00    +0.000 C 
ENDBRANCH  13  15
ENDBRANCH   9  13
ENDBRANCH   7  11
ENDBRANCH   1   7
BRANCH   4  16
ATOM     16  C   LIG    1       -0.455   7.575   0.986  0.00  0.00    +0.240 C 
BRANCH  16  17
ATOM     17  C   LIG    1        0.688   7.826   1.936  0.00  0.00    -0.080 A 
ATOM     18  C   LIG    1        1.992   7.723   1.490  0.00  0.00    +0.020 A 
ATOM     19  C   LIG    1        3.042   7.952   2.358  0.00  0.00    +0.030 A 
ATOM     20  C   LIG    1        2.791   8.286   3.680  0.00  0.00    +0.050 A 
ATOM     21  O   LIG    1        3.836   8.501   4.525  0.00  0.00    -0.310 OA
ATOM     22  C   LIG    1        3.546   9.195   5.744  0.00  0.00    +0.220 C 
ATOM     23  C   LIG    1        2.282   8.578   6.359  0.00  0.00    +0.220 C 
ATOM     24  O   LIG    1        1.210   8.723   5.421  0.00  0.00    -0.310 OA
ATOM     25  C   LIG    1        1.480   8.392   4.129  0.00  0.00    +0.050 A 
ATOM     26  C   LIG    1        0.430   8.165   3.251  0.00  0.00    +0.050 A 
ENDBRANCH  16  17
ENDBRANCH   4  16
TORSDOF 6
