REMARK  Name = ZINCpk000000nvbB.0
REMARK                            x       y       z     vdW  Elec       q    Type
REMARK                         _______ _______ _______ _____ _____    ______ ____
ROOT
ATOM      1  N   LIG    1       -1.341  -8.705   2.548  0.00  0.00    -1.000 NA
ATOM      2  C   LIG    1       -1.909  -7.655   3.404  0.00  0.00    +0.300 C 
ATOM      3  C   LIG    1       -2.096  -6.385   2.567  0.00  0.00    +0.020 C 
ATOM      4  C   LIG    1       -0.765  -6.010   1.911  0.00  0.00    +0.250 C 
ATOM      5  C   LIG    1       -0.317  -7.140   0.981  0.00  0.00    +0.000 C 
ATOM      6  C   LIG    1       -0.110  -8.418   1.800  0.00  0.00    +0.300 C 
ENDROOT
BRANCH   4   7
ATOM      7  N   LIG    1       -0.933  -4.778   1.137  0.00  0.00    -0.720 N 
ATOM      8  H   LIG    1       -1.808  -4.533   0.799  0.00  0.00    +0.400 HD
ATOM      9  C   LIG    1        0.130  -3.985   0.895  0.00  0.00    +0.520 C 
ATOM     10  O   LIG    1        1.224  -4.291   1.318  0.00  0.00    -0.510 OA
BRANCH   9  11
ATOM     11  C   LIG    1       -0.043  -2.717   0.099  0.00  0.00    +0.160 C 
ATOM     12  C   LIG    1       -0.574  -3.058  -1.295  0.00  0.00    +0.060 C 
BRANCH  11  13
ATOM     13  O   LIG    1        1.218  -2.055  -0.021  0.00  0.00    -0.280 OA
BRANCH  13  14
ATOM     14  C   LIG    1        1.193  -0.710  -0.217  0.00  0.00    +0.080 A 
ATOM     15  C   LIG    1       -0.015  -0.047  -0.406  0.00  0.00    -0.030 A 
ATOM     16  C   LIG    1        0.009   1.324  -0.602  0.00  0.00    +0.010 A 
ATOM     17  C   LIG    1        1.224   1.984  -0.604  0.00  0.00    +0.220 A 
ATOM     18  N   LIG    1        2.352   1.325  -0.423  0.00  0.00    -0.440 NA
ATOM     19  C   LIG    1        2.372   0.021  -0.233  0.00  0.00    +0.250 A 
ENDBRANCH  13  14
ENDBRANCH  11  13
ENDBRANCH   9  11
ENDBRANCH   4   7
BRANCH   1  20
ATOM     20  S   LIG    1       -2.075 -10.185   2.429  0.00  0.00    +2.600 S 
ATOM     21  O   LIG    1       -2.780 -10.326   3.655  0.00  0.00    -0.950 OA
ATOM     22  O   LIG    1       -1.020 -11.073   2.085  0.00  0.00    -0.950 OA
BRANCH  20  23
ATOM     23  C   LIG    1       -3.234 -10.007   1.045  0.00  0.00    -0.360 C 
BRANCH  23  25
ATOM     24  C   LIG    1       -5.046 -11.138  -0.251  0.00  0.00    +0.040 C 
ATOM     25  C   LIG    1       -3.982 -11.324   0.833  0.00  0.00    -0.010 C 
ATOM     26  C   LIG    1       -2.993 -12.408   0.396  0.00  0.00    +0.030 C 
ENDBRANCH  23  25
ENDBRANCH  20  23
ENDBRANCH   1  20
TORSDOF 7
