REMARK  Name = ZINCtV00001bB36Z.0
REMARK                            x       y       z     vdW  Elec       q    Type
REMARK                         _______ _______ _______ _____ _____    ______ ____
ROOT
ATOM      1  C   LIG    1        0.002  -0.004   0.002  0.00  0.00    +0.070 C 
ATOM      2  C   LIG    1       -0.016   1.342   0.009  0.00  0.00    +0.090 C 
ENDROOT
BRANCH   2   3
ATOM      3  C   LIG    1        1.249   2.096   0.001  0.00  0.00    -0.180 A 
ATOM      4  C   LIG    1        2.328   1.897   0.842  0.00  0.00    +0.140 A 
ATOM      5  N   LIG    1        3.276   2.795   0.499  0.00  0.00    -0.310 N 
ATOM      6  N   LIG    1        2.790   3.564  -0.565  0.00  0.00    -0.260 NA
ATOM      7 CL   LIG    1        2.443   0.710   2.104  0.00  0.00    +0.020 Cl
ATOM      8  C   LIG    1        1.589   3.154  -0.871  0.00  0.00    +0.110 A 
ATOM      9  C   LIG    1        0.716   3.714  -1.964  0.00  0.00    +0.180 C 
BRANCH   5  10
ATOM     10  C   LIG    1        4.532   2.933   1.105  0.00  0.00    +0.130 A 
ATOM     11  C   LIG    1        4.673   2.721   2.469  0.00  0.00    +0.040 A 
ATOM     12  C   LIG    1        5.913   2.852   3.063  0.00  0.00    +0.020 A 
ATOM     13  C   LIG    1        7.013   3.206   2.300  0.00  0.00    +0.110 A 
ATOM     14  C   LIG    1        6.874   3.423   0.940  0.00  0.00    +0.020 A 
ATOM     15  F   LIG    1        8.225   3.338   2.884  0.00  0.00    -0.130 F 
ATOM     16  C   LIG    1        5.637   3.288   0.341  0.00  0.00    +0.080 A 
ENDBRANCH   5  10
ENDBRANCH   2   3
BRANCH   1  20
ATOM     17  C   LIG    1       -2.582  -2.557   0.013  0.00  0.00    +0.120 A 
ATOM     18  C   LIG    1       -3.582  -1.652   0.027  0.00  0.00    -0.070 A 
ATOM     19  S   LIG    1       -2.867  -0.041   0.037  0.00  0.00    +0.100 S 
ATOM     20  C   LIG    1       -1.257  -0.754   0.010  0.00  0.00    +0.110 A 
ATOM     21  N   LIG    1       -1.361  -2.054   0.004  0.00  0.00    -0.450 NA
BRANCH  17  25
ATOM     22  C   LIG    1       -3.313  -6.748   0.000  0.00  0.00    +0.140 A 
ATOM     23  C   LIG    1       -2.009  -6.272  -0.011  0.00  0.00    -0.010 A 
ATOM     24  C   LIG    1       -1.768  -4.914  -0.007  0.00  0.00    +0.100 A 
ATOM     25  C   LIG    1       -2.837  -4.019   0.008  0.00  0.00    -0.070 A 
ATOM     26  C   LIG    1       -4.145  -4.500   0.024  0.00  0.00    +0.070 A 
ATOM     27  C   LIG    1       -4.379  -5.859   0.015  0.00  0.00    -0.080 A 
BRANCH  22  29
ATOM     28  C   LIG    1       -4.912  -8.507   0.009  0.00  0.00    +0.250 C 
ATOM     29  O   LIG    1       -3.546  -8.087  -0.003  0.00  0.00    -0.320 OA
ENDBRANCH  22  29
ENDBRANCH  17  25
ENDBRANCH   1  20
TORSDOF 5
