REMARK  Name = ZINCqH0000000sIz.0
REMARK                            x       y       z     vdW  Elec       q    Type
REMARK                         _______ _______ _______ _____ _____    ______ ____
ROOT
ATOM      1  S   LIG    1       -0.893   7.131  -1.522  0.00  0.00    +2.700 S 
ATOM      2  O   LIG    1       -0.429   8.016  -0.512  0.00  0.00    -0.950 OA
ATOM      3  O   LIG    1       -2.164   7.261  -2.145  0.00  0.00    -0.950 OA
ENDROOT
BRANCH   1   8
ATOM      4  C   LIG    1        2.344   8.047  -3.726  0.00  0.00    +0.120 A 
ATOM      5  C   LIG    1        2.175   7.255  -4.854  0.00  0.00    +0.090 A 
ATOM      6  C   LIG    1        1.072   6.431  -4.958  0.00  0.00    +0.020 A 
ATOM      7  C   LIG    1        0.139   6.390  -3.938  0.00  0.00    +0.010 A 
ATOM      8  C   LIG    1        0.302   7.182  -2.816  0.00  0.00    -0.660 A 
ATOM      9  C   LIG    1       -1.060   5.485  -4.052  0.00  0.00    +0.100 C 
ATOM     10  C   LIG    1        1.403   8.008  -2.706  0.00  0.00    +0.110 A 
BRANCH   4  13
ATOM     11  C   LIG    1        5.873   9.345  -3.916  0.00  0.00    +0.110 C 
ATOM     12  C   LIG    1        4.649   8.490  -4.119  0.00  0.00    +0.510 C 
ATOM     13  N   LIG    1        3.461   8.883  -3.617  0.00  0.00    -0.680 N 
ATOM     14  H   LIG    1        3.381   9.746  -3.182  0.00  0.00    +0.420 HD
ATOM     15  O   LIG    1        4.732   7.447  -4.732  0.00  0.00    -0.530 OA
ENDBRANCH   4  13
ENDBRANCH   1   8
BRANCH   1  16
ATOM     16  N   LIG    1       -0.845   5.610  -0.870  0.00  0.00    -1.110 NA
ATOM     17  H   LIG    1       -1.609   5.019  -0.961  0.00  0.00    +0.420 HD
BRANCH  16  18
ATOM     18  C   LIG    1        0.351   5.156  -0.156  0.00  0.00    +0.300 C 
BRANCH  18  19
ATOM     19  C   LIG    1        0.927   3.953  -0.856  0.00  0.00    -0.110 A 
ATOM     20  C   LIG    1        2.297   3.820  -0.987  0.00  0.00    +0.050 A 
ATOM     21  C   LIG    1        2.827   2.717  -1.629  0.00  0.00    -0.010 A 
ATOM     22  C   LIG    1        1.985   1.743  -2.139  0.00  0.00    +0.100 A 
ATOM     23  C   LIG    1        0.613   1.879  -2.011  0.00  0.00    -0.010 A 
ATOM     24  F   LIG    1        2.502   0.664  -2.767  0.00  0.00    -0.140 F 
ATOM     25  C   LIG    1        0.086   2.981  -1.365  0.00  0.00    +0.050 A 
ENDBRANCH  18  19
BRANCH  18  26
ATOM     26  C   LIG    1       -0.023   4.782   1.279  0.00  0.00    -0.020 C 
ATOM     27  C   LIG    1       -0.698   5.975   1.959  0.00  0.00    +0.030 C 
ATOM     28  C   LIG    1        1.240   4.401   2.053  0.00  0.00    +0.030 C 
ENDBRANCH  18  26
ENDBRANCH  16  18
ENDBRANCH   1  16
TORSDOF 6
