REMARK  Name = ZINCkj00000y7x3s.1
REMARK                            x       y       z     vdW  Elec       q    Type
REMARK                         _______ _______ _______ _____ _____    ______ ____
ROOT
ATOM      1  C   LIG    1        1.730   3.253   0.003  0.00  0.00    +0.080 C 
ATOM      2  C   LIG    1        3.136   3.345   0.598  0.00  0.00    +0.060 C 
ATOM      3  C   LIG    1        3.583   4.808   0.632  0.00  0.00    +0.040 C 
ATOM      4  C   LIG    1        3.626   5.358  -0.798  0.00  0.00    +0.280 C 
ATOM      5  N   LIG    1        2.317   5.141  -1.427  0.00  0.00    -0.600 N 
ATOM      6  C   LIG    1        1.646   6.167  -1.989  0.00  0.00    +0.660 C 
ATOM      7  O   LIG    1        0.564   5.975  -2.506  0.00  0.00    -0.560 OA
ATOM      8  C   LIG    1        1.751   3.785  -1.434  0.00  0.00    +0.340 C 
ENDROOT
BRANCH   1  13
ATOM      9  C   LIG    1       -1.155  -0.903   0.008  0.00  0.00    +0.430 C 
ATOM     10  N   LIG    1        0.002  -0.004   0.002  0.00  0.00    -0.400 NA
ATOM     11  N   LIG    1       -0.017   1.401   0.010  0.00  0.00    -0.460 N 
ATOM     12  H   LIG    1       -0.804   1.967   0.017  0.00  0.00    +0.470 HD
ATOM     13  C   LIG    1        1.278   1.815  -0.000  0.00  0.00    +0.450 C 
ATOM     14  N   LIG    1        2.069   0.780  -0.013  0.00  0.00    -0.520 NA
ATOM     15  C   LIG    1        1.337  -0.364  -0.013  0.00  0.00    +0.630 C 
BRANCH  15  16
ATOM     16  N   LIG    1        1.809  -1.583  -0.024  0.00  0.00    -0.730 NA
ATOM     17  H   LIG    1        2.768  -1.732  -0.034  0.00  0.00    +0.460 HD
ATOM     18  H   LIG    1        1.201  -2.339  -0.022  0.00  0.00    +0.440 HD
ENDBRANCH  15  16
ENDBRANCH   1  13
BRANCH   6  19
ATOM     19  O   LIG    1        2.176   7.405  -1.976  0.00  0.00    -0.360 OA
BRANCH  19  20
ATOM     20  C   LIG    1        1.399   8.461  -2.599  0.00  0.00    +0.140 C 
ATOM     21  C   LIG    1        1.173   8.125  -4.075  0.00  0.00    +0.030 C 
ATOM     22  C   LIG    1        2.156   9.785  -2.488  0.00  0.00    +0.090 C 
ATOM     23  C   LIG    1        0.048   8.585  -1.892  0.00  0.00    +0.040 C 
ENDBRANCH  19  20
ENDBRANCH   6  19
TORSDOF 4
