REMARK  Name = ZINCrH000004tXcX.0
REMARK                            x       y       z     vdW  Elec       q    Type
REMARK                         _______ _______ _______ _____ _____    ______ ____
ROOT
ATOM      1  C   LIG    1        0.002  -0.004   0.002  0.00  0.00    +0.520 C 
ATOM      2  N   LIG    1       -1.156  -0.694   0.009  0.00  0.00    -0.730 N 
ATOM      3  H   LIG    1       -2.002  -0.220   0.020  0.00  0.00    +0.400 HD
ATOM      4  O   LIG    1        1.060  -0.596  -0.011  0.00  0.00    -0.520 OA
ENDROOT
BRANCH   1   5
ATOM      5  C   LIG    1       -0.018   1.503   0.010  0.00  0.00    +0.050 C 
BRANCH   5   6
ATOM      6  C   LIG    1        1.417   2.032  -0.001  0.00  0.00    +0.290 C 
BRANCH   6   9
ATOM      7  O   LIG    1        3.614   3.595  -0.013  0.00  0.00    -0.520 OA
ATOM      8  C   LIG    1        2.555   4.187   0.000  0.00  0.00    +0.510 C 
ATOM      9  N   LIG    1        1.397   3.497   0.007  0.00  0.00    -0.740 N 
ATOM     10  H   LIG    1        0.551   3.971   0.018  0.00  0.00    +0.400 HD
BRANCH   8  11
ATOM     11  C   LIG    1        2.535   5.694   0.008  0.00  0.00    +0.100 C 
BRANCH  11  12
ATOM     12  C   LIG    1        3.948   6.215  -0.002  0.00  0.00    -0.070 A 
ATOM     13  C   LIG    1        4.606   6.454   1.190  0.00  0.00    +0.010 A 
ATOM     14  C   LIG    1        5.905   6.927   1.180  0.00  0.00    +0.000 A 
ATOM     15  C   LIG    1        6.542   7.173  -0.022  0.00  0.00    +0.000 A 
ATOM     16  C   LIG    1        5.882   6.940  -1.214  0.00  0.00    +0.000 A 
ATOM     17  C   LIG    1        4.585   6.461  -1.204  0.00  0.00    +0.010 A 
ENDBRANCH  11  12
ENDBRANCH   8  11
ENDBRANCH   6   9
ENDBRANCH   5   6
ENDBRANCH   1   5
BRANCH   2  18
ATOM     18  C   LIG    1       -1.136  -2.159   0.001  0.00  0.00    +0.370 C 
BRANCH  18  19
ATOM     19  C   LIG    1       -2.422  -2.675  -0.590  0.00  0.00    -0.090 A 
ATOM     20  C   LIG    1       -3.622  -2.062  -0.278  0.00  0.00    +0.010 A 
ATOM     21  C   LIG    1       -4.801  -2.534  -0.823  0.00  0.00    +0.020 A 
ATOM     22  C   LIG    1       -4.782  -3.623  -1.674  0.00  0.00    +0.020 A 
ATOM     23  C   LIG    1       -3.584  -4.239  -1.982  0.00  0.00    +0.020 A 
ATOM     24  C   LIG    1       -2.404  -3.765  -1.439  0.00  0.00    +0.030 A 
ENDBRANCH  18  19
BRANCH  18  25
ATOM     25  C   LIG    1       -0.992  -2.667   1.413  0.00  0.00    -0.190 A 
ATOM     26  C   LIG    1       -0.237  -3.702   1.784  0.00  0.00    +0.020 A 
ATOM     27  C   LIG    1       -0.261  -3.985   3.139  0.00  0.00    +0.010 A 
ATOM     28  C   LIG    1       -1.035  -3.180   3.868  0.00  0.00    -0.050 A 
ATOM     29  S   LIG    1       -1.787  -1.981   2.824  0.00  0.00    +0.100 S 
ENDBRANCH  18  25
ENDBRANCH   2  18
TORSDOF 8
