REMARK  Name = ZINCkj00000dDcfp.1
REMARK                            x       y       z     vdW  Elec       q    Type
REMARK                         _______ _______ _______ _____ _____    ______ ____
ROOT
ATOM      1  C   LIG    1       -3.640   3.040   3.120  0.00  0.00    +0.620 C 
ATOM      2  N   LIG    1       -4.700   3.066   2.288  0.00  0.00    -0.630 N 
ATOM      3  C   LIG    1       -4.574   2.634   0.887  0.00  0.00    +0.330 C 
ATOM      4  C   LIG    1       -5.695   1.625   0.592  0.00  0.00    +0.260 C 
ATOM      5  N   LIG    1       -6.992   2.228   0.925  0.00  0.00    -0.380 N 
ATOM      6  C   LIG    1       -7.067   2.489   2.368  0.00  0.00    +0.260 C 
ATOM      7  H   LIG    1       -7.095   3.097   0.422  0.00  0.00    +0.430 HD
ATOM      8  C   LIG    1       -6.015   3.534   2.753  0.00  0.00    +0.330 C 
ATOM      9  O   LIG    1       -3.788   3.286   4.302  0.00  0.00    -0.490 OA
ENDROOT
BRANCH   1  13
ATOM     10  C   LIG    1       -0.676   2.271   1.202  0.00  0.00    +0.040 A 
ATOM     11  C   LIG    1       -0.145   2.231   2.444  0.00  0.00    -0.060 A 
ATOM     12  C   LIG    1       -1.182   2.515   3.346  0.00  0.00    +0.090 A 
ATOM     13  C   LIG    1       -2.308   2.716   2.600  0.00  0.00    -0.110 A 
ATOM     14  O   LIG    1       -1.978   2.568   1.300  0.00  0.00    -0.170 OA
BRANCH  10  16
ATOM     15  C   LIG    1        0.020   0.537  -0.429  0.00  0.00    +0.040 C 
ATOM     16  C   LIG    1        0.074   2.026  -0.082  0.00  0.00    +0.150 C 
ENDBRANCH  10  16
ENDBRANCH   1  13
BRANCH   5  17
ATOM     17  C   LIG    1       -8.070   1.309   0.538  0.00  0.00    +0.230 C 
BRANCH  17  18
ATOM     18  C   LIG    1       -8.071   1.135  -0.982  0.00  0.00    +0.200 C 
BRANCH  18  19
ATOM     19  C   LIG    1       -9.195   0.178  -1.385  0.00  0.00    +0.010 C 
ATOM     20  C   LIG    1       -9.118  -0.095  -2.888  0.00  0.00    +0.040 C 
ENDBRANCH  18  19
BRANCH  18  21
ATOM     21  O   LIG    1       -8.278   2.403  -1.607  0.00  0.00    -0.550 OA
ATOM     22  H   LIG    1       -9.114   2.827  -1.368  0.00  0.00    +0.390 HD
ENDBRANCH  18  21
ENDBRANCH  17  18
ENDBRANCH   5  17
TORSDOF 6
