REMARK  Name = ZINCqH0000004y3T.0
REMARK                            x       y       z     vdW  Elec       q    Type
REMARK                         _______ _______ _______ _____ _____    ______ ____
ROOT
ATOM      1  C   LIG    1        2.112   0.664  -0.190  0.00  0.00    +0.050 A 
ATOM      2  C   LIG    1        1.314   1.759  -0.111  0.00  0.00    +0.020 A 
ATOM      3  C   LIG    1        0.002   1.319   0.123  0.00  0.00    +0.280 A 
ATOM      4  N   LIG    1        0.010   0.012   0.184  0.00  0.00    -0.270 NA
ATOM      5  N   LIG    1        1.324  -0.431  -0.010  0.00  0.00    -0.330 N 
ENDROOT
BRANCH   5   6
ATOM      6  C   LIG    1        1.752  -1.766  -0.017  0.00  0.00    +0.170 A 
ATOM      7  C   LIG    1        2.908  -2.129   0.661  0.00  0.00    +0.010 A 
ATOM      8  C   LIG    1        3.328  -3.446   0.652  0.00  0.00    +0.050 A 
ATOM      9  C   LIG    1        2.598  -4.401  -0.030  0.00  0.00    +0.030 A 
ATOM     10  C   LIG    1        1.445  -4.043  -0.707  0.00  0.00    -0.020 A 
ATOM     11 CL   LIG    1        0.532  -5.246  -1.562  0.00  0.00    -0.050 Cl
ATOM     12  C   LIG    1        1.018  -2.728  -0.698  0.00  0.00    +0.040 A 
ENDBRANCH   5   6
BRANCH   2  13
ATOM     13  N   LIG    1        1.728   3.097  -0.242  0.00  0.00    -0.640 N 
ATOM     14  H   LIG    1        2.662   3.302  -0.404  0.00  0.00    +0.410 HD
ATOM     15  C   LIG    1        0.827   4.095  -0.142  0.00  0.00    +0.520 C 
ATOM     16  O   LIG    1       -0.341   3.838   0.061  0.00  0.00    -0.520 OA
BRANCH  15  17
ATOM     17  C   LIG    1        1.271   5.528  -0.282  0.00  0.00    +0.070 C 
BRANCH  17  18
ATOM     18  C   LIG    1        0.062   6.453  -0.128  0.00  0.00    +0.140 C 
BRANCH  18  19
ATOM     19  C   LIG    1        0.506   7.887  -0.268  0.00  0.00    -0.240 A 
ATOM     20  C   LIG    1        0.820   8.726   0.746  0.00  0.00    +0.230 A 
ATOM     21  N   LIG    1        1.169   9.912   0.205  0.00  0.00    -0.380 N 
ATOM     22  N   LIG    1        1.057   9.801  -1.187  0.00  0.00    -0.300 NA
ATOM     23  C   LIG    1        1.586  11.106   0.944  0.00  0.00    +0.360 C 
ATOM     24  C   LIG    1        0.659   8.587  -1.469  0.00  0.00    +0.080 A 
ATOM     25  C   LIG    1        0.410   8.038  -2.850  0.00  0.00    +0.150 C 
ENDBRANCH  18  19
ENDBRANCH  17  18
ENDBRANCH  15  17
ENDBRANCH   2  13
BRANCH   1  27
ATOM     26  C   LIG    1        3.872   0.721  -1.936  0.00  0.00    +0.040 C 
ATOM     27  C   LIG    1        3.599   0.661  -0.431  0.00  0.00    +0.110 C 
ENDBRANCH   1  27
TORSDOF 6
