REMARK  Name = ZINCrH000004tcXz.1
REMARK                            x       y       z     vdW  Elec       q    Type
REMARK                         _______ _______ _______ _____ _____    ______ ____
ROOT
ATOM      1  C   LIG    1        1.974   0.775  -0.013  0.00  0.00    +0.200 A 
ATOM      2  N   LIG    1        1.118   1.764   0.001  0.00  0.00    -0.330 NA
ATOM      3  O   LIG    1       -0.016   1.333   0.009  0.00  0.00    +0.100 OA
ATOM      4  C   LIG    1        0.002  -0.004   0.002  0.00  0.00    +0.180 A 
ATOM      5  N   LIG    1        1.258  -0.373  -0.012  0.00  0.00    -0.460 NA
ENDROOT
BRANCH   4   6
ATOM      6  C   LIG    1       -1.198  -0.915   0.009  0.00  0.00    +0.140 C 
ATOM      7  C   LIG    1       -2.053  -0.642  -1.232  0.00  0.00    +0.050 C 
ATOM      8  C   LIG    1       -3.130  -1.726  -1.363  0.00  0.00    +0.160 C 
ATOM      9  C   LIG    1       -3.829  -1.864  -0.036  0.00  0.00    -0.010 A 
ATOM     10  C   LIG    1       -3.339  -1.386   1.135  0.00  0.00    -0.010 A 
ATOM     11  N   LIG    1       -4.241  -1.700   2.081  0.00  0.00    -0.380 N 
ATOM     12  H   LIG    1       -4.173  -1.490   3.025  0.00  0.00    +0.450 HD
ATOM     13  N   LIG    1       -5.213  -2.330   1.511  0.00  0.00    -0.080 NA
ATOM     14  N   LIG    1       -4.992  -2.442   0.245  0.00  0.00    -0.250 NA
ATOM     15  C   LIG    1       -2.029  -0.657   1.272  0.00  0.00    +0.150 C 
ENDBRANCH   4   6
BRANCH   1  19
ATOM     16  C   LIG    1        4.274   4.410  -0.016  0.00  0.00    -0.030 A 
ATOM     17  N   LIG    1        3.498   3.391  -0.014  0.00  0.00    -0.390 NA
ATOM     18  C   LIG    1        4.063   2.172  -0.025  0.00  0.00    +0.100 A 
ATOM     19  C   LIG    1        3.452   0.890  -0.026  0.00  0.00    +0.050 A 
ATOM     20  C   LIG    1        4.235  -0.251  -0.034  0.00  0.00    +0.100 A 
ATOM     21  C   LIG    1        5.616  -0.156  -0.052  0.00  0.00    +0.070 A 
ATOM     22  C   LIG    1        6.226   1.080  -0.052  0.00  0.00    +0.100 A 
ATOM     23  C   LIG    1        5.460   2.244  -0.038  0.00  0.00    -0.180 A 
ATOM     24  S   LIG    1        5.916   3.945  -0.034  0.00  0.00    +0.210 S 
BRANCH  16  26
ATOM     25  F   LIG    1        3.663   6.275   1.319  0.00  0.00    -0.160 F 
ATOM     26  C   LIG    1        3.797   5.839  -0.004  0.00  0.00    +0.550 C 
ATOM     27  F   LIG    1        2.560   5.924  -0.651  0.00  0.00    -0.150 F 
ATOM     28  F   LIG    1        4.727   6.647  -0.669  0.00  0.00    -0.160 F 
ENDBRANCH  16  26
ENDBRANCH   1  19
TORSDOF 3
