REMARK  Name = ZINCrH000004tcXz.2
REMARK                            x       y       z     vdW  Elec       q    Type
REMARK                         _______ _______ _______ _____ _____    ______ ____
ROOT
ATOM      1  C   LIG    1        7.622  -0.975   0.365  0.00  0.00    +0.200 A 
ATOM      2  N   LIG    1        7.347  -0.729  -0.890  0.00  0.00    -0.330 NA
ATOM      3  O   LIG    1        6.150  -0.601  -1.037  0.00  0.00    +0.100 OA
ATOM      4  C   LIG    1        5.526  -0.745   0.136  0.00  0.00    +0.190 A 
ATOM      5  N   LIG    1        6.447  -0.987   1.036  0.00  0.00    -0.460 NA
ENDROOT
BRANCH   4   6
ATOM      6  C   LIG    1        4.041  -0.654   0.378  0.00  0.00    +0.140 C 
ATOM      7  C   LIG    1        3.322  -1.716  -0.458  0.00  0.00    +0.070 C 
ATOM      8  C   LIG    1        1.851  -1.797  -0.031  0.00  0.00    +0.150 C 
ATOM      9  C   LIG    1        1.286  -0.402  -0.013  0.00  0.00    -0.010 A 
ATOM     10  C   LIG    1        2.037   0.727  -0.013  0.00  0.00    -0.010 A 
ATOM     11  N   LIG    1        1.189   1.750   0.000  0.00  0.00    -0.250 NA
ATOM     12  N   LIG    1       -0.015   1.287   0.009  0.00  0.00    -0.080 NA
ATOM     13  N   LIG    1        0.002  -0.004   0.002  0.00  0.00    -0.380 N 
ATOM     14  H   LIG    1       -0.775  -0.585   0.007  0.00  0.00    +0.450 HD
ATOM     15  C   LIG    1        3.543   0.741  -0.024  0.00  0.00    +0.170 C 
ENDBRANCH   4   6
BRANCH   1  19
ATOM     16  C   LIG    1       11.371  -0.942  -1.743  0.00  0.00    -0.030 A 
ATOM     17  N   LIG    1       10.206  -0.930  -1.212  0.00  0.00    -0.390 NA
ATOM     18  C   LIG    1       10.115  -1.154   0.110  0.00  0.00    +0.100 A 
ATOM     19  C   LIG    1        8.967  -1.198   0.944  0.00  0.00    +0.050 A 
ATOM     20  C   LIG    1        9.105  -1.443   2.300  0.00  0.00    +0.100 A 
ATOM     21  C   LIG    1       10.357  -1.659   2.851  0.00  0.00    +0.070 A 
ATOM     22  C   LIG    1       11.481  -1.620   2.055  0.00  0.00    +0.100 A 
ATOM     23  C   LIG    1       11.369  -1.369   0.690  0.00  0.00    -0.180 A 
ATOM     24  S   LIG    1       12.582  -1.255  -0.582  0.00  0.00    +0.210 S 
BRANCH  16  26
ATOM     25  F   LIG    1       11.839   0.658  -3.433  0.00  0.00    -0.160 F 
ATOM     26  C   LIG    1       11.639  -0.708  -3.207  0.00  0.00    +0.550 C 
ATOM     27  F   LIG    1       10.544  -1.149  -3.958  0.00  0.00    -0.150 F 
ATOM     28  F   LIG    1       12.783  -1.417  -3.590  0.00  0.00    -0.160 F 
ENDBRANCH  16  26
ENDBRANCH   1  19
TORSDOF 3
