REMARK  Name = ZINCrH000004tcXz.0
REMARK                            x       y       z     vdW  Elec       q    Type
REMARK                         _______ _______ _______ _____ _____    ______ ____
ROOT
ATOM      1  C   LIG    1        5.658  -1.387   0.428  0.00  0.00    +0.200 A 
ATOM      2  N   LIG    1        5.503  -1.068  -0.832  0.00  0.00    -0.330 NA
ATOM      3  O   LIG    1        4.444  -0.500  -0.990  0.00  0.00    +0.100 OA
ATOM      4  C   LIG    1        3.805  -0.386   0.178  0.00  0.00    +0.190 A 
ATOM      5  N   LIG    1        4.561  -0.948   1.088  0.00  0.00    -0.460 NA
ENDROOT
BRANCH   4   6
ATOM      6  C   LIG    1        2.463   0.261   0.406  0.00  0.00    +0.140 C 
ATOM      7  C   LIG    1        1.402  -0.461  -0.429  0.00  0.00    +0.060 C 
ATOM      8  C   LIG    1        0.002  -0.004   0.002  0.00  0.00    +0.160 C 
ATOM      9  C   LIG    1       -0.018   1.501   0.010  0.00  0.00    +0.010 A 
ATOM     10  N   LIG    1       -1.026   2.326   0.019  0.00  0.00    -0.270 NA
ATOM     11  N   LIG    1       -0.565   3.532   0.023  0.00  0.00    -0.260 N 
ATOM     12  H   LIG    1       -1.115   4.331   0.031  0.00  0.00    +0.470 HD
ATOM     13  N   LIG    1        0.725   3.531   0.011  0.00  0.00    -0.270 NA
ATOM     14  C   LIG    1        1.135   2.295   0.004  0.00  0.00    +0.010 A 
ATOM     15  C   LIG    1        2.534   1.737  -0.007  0.00  0.00    +0.170 C 
ENDBRANCH   4   6
BRANCH   1  19
ATOM     16  C   LIG    1        9.155  -2.792  -1.645  0.00  0.00    -0.030 A 
ATOM     17  N   LIG    1        8.077  -2.336  -1.126  0.00  0.00    -0.390 NA
ATOM     18  C   LIG    1        7.900  -2.496   0.197  0.00  0.00    +0.100 A 
ATOM     19  C   LIG    1        6.816  -2.095   1.021  0.00  0.00    +0.050 A 
ATOM     20  C   LIG    1        6.844  -2.360   2.380  0.00  0.00    +0.100 A 
ATOM     21  C   LIG    1        7.918  -3.026   2.944  0.00  0.00    +0.070 A 
ATOM     22  C   LIG    1        8.979  -3.422   2.158  0.00  0.00    +0.090 A 
ATOM     23  C   LIG    1        8.978  -3.162   0.790  0.00  0.00    -0.180 A 
ATOM     24  S   LIG    1       10.152  -3.527  -0.472  0.00  0.00    +0.210 S 
BRANCH  16  26
ATOM     25  F   LIG    1       10.200  -1.504  -3.343  0.00  0.00    -0.160 F 
ATOM     26  C   LIG    1        9.499  -2.692  -3.109  0.00  0.00    +0.550 C 
ATOM     27  F   LIG    1        8.323  -2.696  -3.867  0.00  0.00    -0.150 F 
ATOM     28  F   LIG    1       10.294  -3.783  -3.477  0.00  0.00    -0.160 F 
ENDBRANCH  16  26
ENDBRANCH   1  19
TORSDOF 3
