REMARK  Name = ZINCvU0000000Ghu.0
REMARK                            x       y       z     vdW  Elec       q    Type
REMARK                         _______ _______ _______ _____ _____    ______ ____
ROOT
ATOM      1  C   LIG    1        1.044   4.960  -1.937  0.00  0.00    +0.530 C 
ATOM      2  N   LIG    1        0.561   4.055  -1.063  0.00  0.00    -0.610 N 
ATOM      3  C   LIG    1        1.393   3.563   0.043  0.00  0.00    +0.290 C 
ATOM      4  C   LIG    1        1.417   2.032  -0.001  0.00  0.00    +0.040 C 
ATOM      5  C   LIG    1       -0.018   1.503   0.010  0.00  0.00    +0.080 C 
ATOM      6  C   LIG    1       -0.760   2.009  -1.229  0.00  0.00    +0.040 C 
ATOM      7  C   LIG    1       -0.809   3.540  -1.199  0.00  0.00    +0.290 C 
ATOM      8  O   LIG    1        2.176   5.378  -1.814  0.00  0.00    -0.520 OA
ENDROOT
BRANCH   5   9
ATOM      9  C   LIG    1        0.002  -0.004   0.002  0.00  0.00    +0.140 A 
ATOM     10  N   LIG    1        0.527  -0.760  -0.912  0.00  0.00    -0.270 NA
ATOM     11  O   LIG    1        0.348  -2.119  -0.569  0.00  0.00    -0.090 OA
ATOM     12  C   LIG    1       -0.314  -2.200   0.604  0.00  0.00    +0.080 A 
ATOM     13  C   LIG    1       -0.743  -3.266   1.385  0.00  0.00    +0.060 A 
ATOM     14  C   LIG    1       -1.412  -3.028   2.566  0.00  0.00    +0.070 A 
ATOM     15  C   LIG    1       -1.664  -1.728   2.986  0.00  0.00    +0.070 A 
ATOM     16  C   LIG    1       -1.246  -0.658   2.225  0.00  0.00    +0.070 A 
ATOM     17  F   LIG    1       -2.321  -1.513   4.146  0.00  0.00    -0.130 F 
ATOM     18  C   LIG    1       -0.562  -0.885   1.029  0.00  0.00    -0.170 A 
ENDBRANCH   5   9
BRANCH   1  19
ATOM     19  C   LIG    1        0.177   5.455  -3.066  0.00  0.00    +0.100 C 
BRANCH  19  20
ATOM     20  S   LIG    1        1.103   6.653  -4.057  0.00  0.00    +0.020 S 
BRANCH  20  24
ATOM     21  C   LIG    1       -0.418   9.298  -8.301  0.00  0.00    +0.120 C 
ATOM     22  C   LIG    1       -0.730   8.302  -7.214  0.00  0.00    -0.010 A 
ATOM     23  C   LIG    1        0.200   7.983  -6.271  0.00  0.00    -0.020 A 
ATOM     24  C   LIG    1       -0.112   7.053  -5.268  0.00  0.00    +0.140 A 
ATOM     25  N   LIG    1       -1.292   6.468  -5.214  0.00  0.00    -0.490 NA
ATOM     26  C   LIG    1       -2.246   6.745  -6.111  0.00  0.00    +0.150 A 
ATOM     27  C   LIG    1       -3.503   6.122  -6.044  0.00  0.00    +0.030 A 
ATOM     28  C   LIG    1       -4.455   6.419  -6.972  0.00  0.00    +0.040 A 
ATOM     29  C   LIG    1       -4.202   7.334  -7.992  0.00  0.00    +0.010 A 
ATOM     30  C   LIG    1       -2.995   7.958  -8.087  0.00  0.00    +0.040 A 
ATOM     31  C   LIG    1       -1.992   7.676  -7.148  0.00  0.00    -0.110 A 
ENDBRANCH  20  24
ENDBRANCH  19  20
ENDBRANCH   1  19
TORSDOF 4
