REMARK  Name = ZINCrD00000l1MSi.0
REMARK                            x       y       z     vdW  Elec       q    Type
REMARK                         _______ _______ _______ _____ _____    ______ ____
ROOT
ATOM      1  O   LIG    1        3.556   2.011   0.080  0.00  0.00    -0.500 OA
ATOM      2  C   LIG    1        3.538   3.227   0.086  0.00  0.00    +0.560 C 
ATOM      3  N   LIG    1        2.364   3.884  -0.000  0.00  0.00    -0.670 N 
ATOM      4  H   LIG    1        2.354   4.852  -0.063  0.00  0.00    +0.420 HD
ENDROOT
BRANCH   3   5
ATOM      5  C   LIG    1        1.160   3.169   0.000  0.00  0.00    +0.170 A 
ATOM      6  C   LIG    1        0.036   3.703   0.617  0.00  0.00    +0.030 A 
ATOM      7  C   LIG    1       -1.153   2.999   0.618  0.00  0.00    +0.090 A 
ATOM      8  C   LIG    1       -1.226   1.756   0.010  0.00  0.00    +0.010 A 
ATOM      9  O   LIG    1       -2.259   0.873  -0.121  0.00  0.00    -0.290 OA
ATOM     10  C   LIG    1       -1.649  -0.384  -0.468  0.00  0.00    +0.570 C 
ATOM     11  O   LIG    1       -0.431   0.004  -1.138  0.00  0.00    -0.280 OA
ATOM     12  F   LIG    1       -2.474  -1.109  -1.335  0.00  0.00    -0.120 F 
ATOM     13  F   LIG    1       -1.372  -1.130   0.683  0.00  0.00    -0.150 F 
ATOM     14  C   LIG    1       -0.101   1.221  -0.615  0.00  0.00    +0.050 A 
ATOM     15  C   LIG    1        1.090   1.927  -0.616  0.00  0.00    +0.070 A 
ENDBRANCH   3   5
BRANCH   2  16
ATOM     16  C   LIG    1        4.803   3.984   0.189  0.00  0.00    -0.140 A 
ATOM     17  C   LIG    1        4.787   5.380   0.191  0.00  0.00    +0.050 A 
ATOM     18  C   LIG    1        5.971   6.080   0.293  0.00  0.00    +0.000 A 
ATOM     19  C   LIG    1        7.174   5.403   0.381  0.00  0.00    +0.060 A 
ATOM     20  C   LIG    1        7.197   4.019   0.375  0.00  0.00    -0.120 A 
ATOM     21  C   LIG    1        6.020   3.306   0.279  0.00  0.00    +0.110 A 
BRANCH  20  22
ATOM     22  C   LIG    1        8.512   3.289   0.472  0.00  0.00    +0.350 C 
BRANCH  22  23
ATOM     23  N   LIG    1        9.045   3.061  -0.873  0.00  0.00    -0.620 N 
ATOM     24  C   LIG    1        9.931   3.992  -1.582  0.00  0.00    +0.250 C 
ATOM     25  C   LIG    1        9.872   3.567  -3.066  0.00  0.00    +0.040 C 
ATOM     26  C   LIG    1        9.490   2.073  -2.952  0.00  0.00    +0.050 C 
ATOM     27  C   LIG    1        8.790   1.969  -1.615  0.00  0.00    +0.520 C 
ATOM     28  O   LIG    1        8.098   1.037  -1.264  0.00  0.00    -0.520 OA
ENDBRANCH  22  23
ENDBRANCH  20  22
ENDBRANCH   2  16
TORSDOF 4
