REMARK  Name = ZINCqH0000050Xjd.0
REMARK                            x       y       z     vdW  Elec       q    Type
REMARK                         _______ _______ _______ _____ _____    ______ ____
ROOT
ATOM      1  C   LIG    1       -1.265  -1.466   0.094  0.00  0.00    +0.390 C 
ATOM      2  N   LIG    1       -2.435  -0.586   0.040  0.00  0.00    -0.250 N 
ATOM      3  N   LIG    1       -3.655  -0.983   0.005  0.00  0.00    -0.220 NA
ATOM      4  C   LIG    1       -4.482   0.028  -0.040  0.00  0.00    -0.050 A 
ATOM      5  C   LIG    1       -3.717   1.210  -0.028  0.00  0.00    -0.060 A 
ATOM      6  C   LIG    1       -2.390   0.780   0.019  0.00  0.00    -0.020 A 
ENDROOT
BRANCH   5   7
ATOM      7  C   LIG    1       -4.213   2.606  -0.061  0.00  0.00    -0.040 A 
ATOM      8  C   LIG    1       -4.005   3.446   1.033  0.00  0.00    +0.040 A 
ATOM      9  C   LIG    1       -4.463   4.749   1.000  0.00  0.00    +0.030 A 
ATOM     10  C   LIG    1       -5.135   5.220  -0.109  0.00  0.00    -0.080 A 
ATOM     11  C   LIG    1       -5.744   6.565  -0.425  0.00  0.00    +0.160 C 
ATOM     12  C   LIG    1       -6.337   6.440  -1.807  0.00  0.00    -0.090 A 
ATOM     13  C   LIG    1       -7.014   7.335  -2.608  0.00  0.00    +0.030 A 
ATOM     14  C   LIG    1       -7.458   6.947  -3.859  0.00  0.00    +0.020 A 
ATOM     15  C   LIG    1       -7.223   5.660  -4.310  0.00  0.00    +0.010 A 
ATOM     16  C   LIG    1       -6.546   4.758  -3.516  0.00  0.00    +0.030 A 
ATOM     17  C   LIG    1       -6.096   5.143  -2.252  0.00  0.00    -0.060 A 
ATOM     18  C   LIG    1       -5.356   4.392  -1.208  0.00  0.00    -0.050 A 
ATOM     19  C   LIG    1       -4.891   3.078  -1.180  0.00  0.00    +0.060 A 
ENDBRANCH   5   7
BRANCH   6  20
ATOM     20  C   LIG    1       -1.188   1.624   0.046  0.00  0.00    +0.600 C 
ATOM     21  O   LIG    1       -0.732   2.067  -0.991  0.00  0.00    -0.510 OA
ATOM     22  N   LIG    1       -0.591   1.909   1.221  0.00  0.00    -0.840 N 
ATOM     23  H   LIG    1        0.245   2.400   1.233  0.00  0.00    +0.410 HD
ATOM     24  H   LIG    1       -0.996   1.619   2.053  0.00  0.00    +0.410 HD
ENDBRANCH   6  20
BRANCH   4  25
ATOM     25  C   LIG    1       -5.986  -0.056  -0.089  0.00  0.00    +0.560 C 
ATOM     26  F   LIG    1       -6.442   0.454  -1.309  0.00  0.00    -0.170 F 
ATOM     27  F   LIG    1       -6.529   0.691   0.962  0.00  0.00    -0.160 F 
ATOM     28  F   LIG    1       -6.383  -1.392   0.035  0.00  0.00    -0.160 F 
ENDBRANCH   4  25
TORSDOF 3
