REMARK  Name = ZINCqH0000037RDS.0
REMARK                            x       y       z     vdW  Elec       q    Type
REMARK                         _______ _______ _______ _____ _____    ______ ____
ROOT
ATOM      1  N   LIG    1        2.357   3.888  -0.001  0.00  0.00    -0.550 N 
ATOM      2  C   LIG    1        3.688   3.276   0.089  0.00  0.00    +0.320 C 
ATOM      3  C   LIG    1        4.645   4.425   0.479  0.00  0.00    +0.020 C 
ATOM      4  C   LIG    1        3.889   5.661  -0.061  0.00  0.00    +0.100 C 
ATOM      5  C   LIG    1        2.441   5.226  -0.097  0.00  0.00    +0.520 C 
ATOM      6  O   LIG    1        1.493   5.976  -0.196  0.00  0.00    -0.500 OA
ENDROOT
BRANCH   1  10
ATOM      7  C   LIG    1       -2.559   3.868   0.081  0.00  0.00    +0.100 C 
ATOM      8  C   LIG    1       -1.242   3.136   0.046  0.00  0.00    -0.090 A 
ATOM      9  C   LIG    1       -0.058   3.846   0.039  0.00  0.00    +0.030 A 
ATOM     10  C   LIG    1        1.155   3.170   0.008  0.00  0.00    +0.160 A 
ATOM     11  C   LIG    1        1.174   1.782  -0.016  0.00  0.00    +0.010 A 
ATOM     12  C   LIG    1       -0.013   1.076  -0.009  0.00  0.00    +0.020 A 
ATOM     13  C   LIG    1       -1.221   1.751   0.017  0.00  0.00    +0.070 A 
ATOM     14  F   LIG    1       -2.381   1.059   0.019  0.00  0.00    -0.140 F 
ENDBRANCH   1  10
BRANCH   3  15
ATOM     15  C   LIG    1        4.810   4.504   1.975  0.00  0.00    +0.510 C 
ATOM     16  N   LIG    1        5.609   5.446   2.516  0.00  0.00    -0.650 N 
ATOM     17  H   LIG    1        6.077   6.072   1.942  0.00  0.00    +0.420 HD
ATOM     18  O   LIG    1        4.224   3.721   2.692  0.00  0.00    -0.450 OA
BRANCH  16  19
ATOM     19  C   LIG    1        5.761   5.519   3.897  0.00  0.00    +0.410 A 
ATOM     20  C   LIG    1        6.602   6.510   4.460  0.00  0.00    -0.160 A 
ATOM     21  C   LIG    1        7.396   7.542   3.819  0.00  0.00    +0.040 A 
ATOM     22  C   LIG    1        8.076   8.313   4.645  0.00  0.00    -0.020 A 
ATOM     23  S   LIG    1        7.812   7.849   6.316  0.00  0.00    +0.130 S 
ATOM     24  C   LIG    1        6.726   6.549   5.853  0.00  0.00    -0.090 A 
ATOM     25  C   LIG    1        6.018   5.612   6.618  0.00  0.00    -0.020 A 
ATOM     26  C   LIG    1        5.230   4.692   5.991  0.00  0.00    +0.310 A 
ATOM     27  N   LIG    1        5.118   4.670   4.673  0.00  0.00    -0.480 NA
ENDBRANCH  16  19
ENDBRANCH   3  15
TORSDOF 3
