REMARK  Name = ZINCnE000008JiNZ.1
REMARK                            x       y       z     vdW  Elec       q    Type
REMARK                         _______ _______ _______ _____ _____    ______ ____
ROOT
ATOM      1  C   LIG    1        3.508   3.577  -0.941  0.00  0.00    +0.110 A 
ATOM      2  C   LIG    1        3.537   2.504  -0.060  0.00  0.00    +0.010 A 
ATOM      3  C   LIG    1        2.367   1.839   0.254  0.00  0.00    +0.040 A 
ATOM      4  C   LIG    1        1.169   2.241  -0.308  0.00  0.00    -0.100 A 
ATOM      5  C   LIG    1        1.139   3.306  -1.189  0.00  0.00    +0.110 A 
ATOM      6  C   LIG    1        2.304   3.979  -1.503  0.00  0.00    -0.020 A 
ENDROOT
BRANCH   1   9
ATOM      7  O   LIG    1        5.887   2.393  -1.077  0.00  0.00    -0.460 OA
ATOM      8  C   LIG    1        5.851   3.573  -1.355  0.00  0.00    +0.480 C 
ATOM      9  N   LIG    1        4.691   4.253  -1.261  0.00  0.00    -0.640 N 
ATOM     10  H   LIG    1        4.676   5.210  -1.415  0.00  0.00    +0.420 HD
BRANCH   8  11
ATOM     11  C   LIG    1        7.104   4.279  -1.806  0.00  0.00    +0.450 C 
ATOM     12  F   LIG    1        7.395   5.323  -0.921  0.00  0.00    -0.170 F 
ATOM     13  F   LIG    1        6.910   4.797  -3.091  0.00  0.00    -0.170 F 
ATOM     14  F   LIG    1        8.169   3.373  -1.823  0.00  0.00    -0.150 F 
ENDBRANCH   8  11
ENDBRANCH   1   9
BRANCH   4  15
ATOM     15  C   LIG    1       -0.104   1.513   0.036  0.00  0.00    +0.170 C 
ATOM     16  O   LIG    1       -1.201   2.124  -0.646  0.00  0.00    -0.780 OA
BRANCH  15  17
ATOM     17  C   LIG    1        0.013   0.049  -0.394  0.00  0.00    +0.420 C 
ATOM     18  F   LIG    1       -1.170  -0.626  -0.075  0.00  0.00    -0.190 F 
ATOM     19  F   LIG    1        1.087  -0.549   0.274  0.00  0.00    -0.200 F 
ATOM     20  F   LIG    1        0.228  -0.015  -1.775  0.00  0.00    -0.180 F 
ENDBRANCH  15  17
BRANCH  15  21
ATOM     21  C   LIG    1       -0.340   1.583   1.546  0.00  0.00    +0.420 C 
ATOM     22  F   LIG    1       -0.322   2.920   1.959  0.00  0.00    -0.180 F 
ATOM     23  F   LIG    1        0.670   0.877   2.209  0.00  0.00    -0.200 F 
ATOM     24  F   LIG    1       -1.582   1.017   1.851  0.00  0.00    -0.180 F 
ENDBRANCH  15  21
ENDBRANCH   4  15
TORSDOF 5
