REMARK  Name = ZINCvU0000000Cuz.0
REMARK                            x       y       z     vdW  Elec       q    Type
REMARK                         _______ _______ _______ _____ _____    ______ ____
ROOT
ATOM      1  O   LIG    1        2.308  -2.340   1.136  0.00  0.00    -0.320 OA
ENDROOT
BRANCH   1   2
ATOM      2  C   LIG    1        2.010  -1.723  -0.025  0.00  0.00    +0.560 C 
ATOM      3  O   LIG    1        2.245  -2.273  -1.083  0.00  0.00    -0.470 OA
BRANCH   2   6
ATOM      4  C   LIG    1        3.509   1.096  -0.041  0.00  0.00    +0.210 C 
ATOM      5  C   LIG    1        2.024   0.840  -0.018  0.00  0.00    +0.050 A 
ATOM      6  C   LIG    1        1.401  -0.384  -0.011  0.00  0.00    -0.230 A 
ATOM      7  C   LIG    1       -0.032  -0.023   0.012  0.00  0.00    +0.100 A 
ATOM      8  N   LIG    1       -0.054   1.286   0.017  0.00  0.00    -0.320 NA
ATOM      9  O   LIG    1        1.056   1.759   0.000  0.00  0.00    +0.120 OA
BRANCH   7  10
ATOM     10  C   LIG    1       -1.194  -0.944   0.028  0.00  0.00    -0.020 A 
ATOM     11  C   LIG    1       -0.993  -2.323   0.015  0.00  0.00    +0.040 A 
ATOM     12  C   LIG    1       -2.078  -3.176   0.035  0.00  0.00    +0.030 A 
ATOM     13  C   LIG    1       -3.363  -2.665   0.056  0.00  0.00    +0.050 A 
ATOM     14  C   LIG    1       -3.570  -1.298   0.064  0.00  0.00    +0.030 A 
ATOM     15  C   LIG    1       -2.492  -0.434   0.050  0.00  0.00    -0.010 A 
ATOM     16 CL   LIG    1       -2.752   1.282   0.058  0.00  0.00    -0.030 Cl
ENDBRANCH   7  10
ENDBRANCH   2   6
ENDBRANCH   1   2
BRANCH   1  17
ATOM     17  C   LIG    1        2.907  -3.659   1.047  0.00  0.00    +0.280 C 
BRANCH  17  18
ATOM     18  C   LIG    1        3.167  -4.188   2.434  0.00  0.00    +0.520 C 
ATOM     19  N   LIG    1        3.723  -5.404   2.598  0.00  0.00    -0.670 N 
ATOM     20  H   LIG    1        3.896  -5.967   1.827  0.00  0.00    +0.420 HD
ATOM     21  O   LIG    1        2.877  -3.518   3.402  0.00  0.00    -0.480 OA
BRANCH  19  22
ATOM     22  C   LIG    1        4.052  -5.856   3.881  0.00  0.00    +0.200 A 
ATOM     23  C   LIG    1        3.256  -5.511   4.965  0.00  0.00    +0.050 A 
ATOM     24  C   LIG    1        3.579  -5.963   6.230  0.00  0.00    +0.100 A 
ATOM     25  C   LIG    1        4.702  -6.749   6.419  0.00  0.00    -0.050 A 
ATOM     26  C   LIG    1        5.501  -7.089   5.341  0.00  0.00    +0.120 A 
ATOM     27 CL   LIG    1        5.110  -7.308   8.011  0.00  0.00    -0.050 Cl
ATOM     28  C   LIG    1        5.178  -6.645   4.074  0.00  0.00    -0.200 A 
BRANCH  28  29
ATOM     29  C   LIG    1        6.049  -7.016   2.901  0.00  0.00    +0.510 C 
ATOM     30  F   LIG    1        6.549  -5.854   2.305  0.00  0.00    -0.170 F 
ATOM     31  F   LIG    1        5.292  -7.731   1.966  0.00  0.00    -0.180 F 
ATOM     32  F   LIG    1        7.113  -7.809   3.342  0.00  0.00    -0.170 F 
ENDBRANCH  28  29
ENDBRANCH  19  22
ENDBRANCH  17  18
ENDBRANCH   1  17
TORSDOF 7
