REMARK  Name = ZINCvU0000000GmJ.0
REMARK                            x       y       z     vdW  Elec       q    Type
REMARK                         _______ _______ _______ _____ _____    ______ ____
ROOT
ATOM      1  C   LIG    1       -0.211  -0.690   2.639  0.00  0.00    +0.160 A 
ATOM      2  N   LIG    1       -0.976  -1.245   1.726  0.00  0.00    -0.280 NA
ATOM      3  N   LIG    1       -0.832  -2.522   1.747  0.00  0.00    -0.260 NA
ATOM      4  C   LIG    1        0.033  -2.860   2.675  0.00  0.00    +0.230 A 
ATOM      5  N   LIG    1        0.462  -1.697   3.271  0.00  0.00    -0.450 N 
ENDROOT
BRANCH   4   6
ATOM      6  C   LIG    1        0.469  -4.232   3.011  0.00  0.00    -0.010 A 
ATOM      7  C   LIG    1        1.095  -4.489   4.231  0.00  0.00    +0.030 A 
ATOM      8  C   LIG    1        1.496  -5.772   4.542  0.00  0.00    +0.040 A 
ATOM      9  C   LIG    1        1.286  -6.803   3.641  0.00  0.00    -0.020 A 
ATOM     10  C   LIG    1        0.669  -6.553   2.426  0.00  0.00    +0.050 A 
ATOM     11 CL   LIG    1        1.799  -8.414   4.035  0.00  0.00    -0.060 Cl
ATOM     12  C   LIG    1        0.260  -5.275   2.107  0.00  0.00    +0.090 A 
ENDBRANCH   4   6
BRANCH   1  13
ATOM     13  S   LIG    1       -0.073   1.033   2.981  0.00  0.00    +0.060 S 
BRANCH  13  15
ATOM     14  C   LIG    1       -0.709   1.403   0.350  0.00  0.00    +0.110 C 
ATOM     15  C   LIG    1       -1.235   1.690   1.758  0.00  0.00    +0.160 C 
BRANCH  15  16
ATOM     16  C   LIG    1       -1.376   3.178   1.948  0.00  0.00    +0.200 A 
ATOM     17  N   LIG    1       -2.495   3.858   1.947  0.00  0.00    -0.440 NA
ATOM     18  C   LIG    1       -2.137   5.147   2.155  0.00  0.00    +0.250 A 
ATOM     19  N   LIG    1       -0.831   5.172   2.259  0.00  0.00    -0.350 NA
ATOM     20  O   LIG    1       -0.383   4.051   2.142  0.00  0.00    +0.100 OA
BRANCH  18  21
ATOM     21  C   LIG    1       -3.046   6.308   2.241  0.00  0.00    +0.040 A 
ATOM     22  C   LIG    1       -2.674   7.600   2.445  0.00  0.00    +0.020 A 
ATOM     23  C   LIG    1       -3.856   8.366   2.456  0.00  0.00    -0.060 A 
ATOM     24  C   LIG    1       -4.881   7.512   2.261  0.00  0.00    +0.220 A 
ATOM     25  O   LIG    1       -4.388   6.271   2.126  0.00  0.00    -0.150 OA
ENDBRANCH  18  21
ENDBRANCH  15  16
ENDBRANCH  13  15
ENDBRANCH   1  13
BRANCH   5  26
ATOM     26  C   LIG    1        1.435  -1.566   4.358  0.00  0.00    +0.440 C 
BRANCH  26  27
ATOM     27  C   LIG    1        0.707  -1.458   5.673  0.00  0.00    -0.060 A 
ATOM     28  C   LIG    1        0.469  -2.472   6.525  0.00  0.00    -0.020 A 
ATOM     29  C   LIG    1       -0.236  -1.926   7.623  0.00  0.00    -0.060 A 
ATOM     30  C   LIG    1       -0.387  -0.613   7.375  0.00  0.00    +0.200 A 
ATOM     31  O   LIG    1        0.192  -0.334   6.196  0.00  0.00    -0.160 OA
ENDBRANCH  26  27
ENDBRANCH   5  26
TORSDOF 7
