REMARK  Name = ZINCpe00000gLUay.0
REMARK                            x       y       z     vdW  Elec       q    Type
REMARK                         _______ _______ _______ _____ _____    ______ ____
ROOT
ATOM      1  C   LIG    1       -2.908  -3.358  -1.095  0.00  0.00    -0.230 C 
ATOM      2  C   LIG    1       -2.405  -2.841   0.046  0.00  0.00    +0.200 C 
ATOM      3  N   LIG    1       -3.171  -2.738   1.172  0.00  0.00    -0.640 N 
ATOM      4  H   LIG    1       -2.768  -2.356   1.967  0.00  0.00    +0.430 HD
ATOM      5  C   LIG    1       -4.449  -3.135   1.239  0.00  0.00    +0.710 C 
ATOM      6  N   LIG    1       -5.088  -3.675   0.183  0.00  0.00    -0.720 N 
ATOM      7  H   LIG    1       -6.014  -3.956   0.254  0.00  0.00    +0.440 HD
ATOM      8  O   LIG    1       -5.051  -3.002   2.287  0.00  0.00    -0.560 OA
ATOM      9  C   LIG    1       -4.348  -3.830  -1.080  0.00  0.00    +0.340 C 
ENDROOT
BRANCH   1  10
ATOM     10  C   LIG    1       -2.117  -3.460  -2.263  0.00  0.00    +0.540 C 
ATOM     11  O   LIG    1       -2.238  -2.639  -3.153  0.00  0.00    -0.480 OA
BRANCH  10  12
ATOM     12  O   LIG    1       -1.228  -4.467  -2.390  0.00  0.00    -0.350 OA
BRANCH  12  14
ATOM     13  C   LIG    1        0.483  -5.710  -3.559  0.00  0.00    +0.070 C 
ATOM     14  C   LIG    1       -0.463  -4.509  -3.596  0.00  0.00    +0.200 C 
ENDBRANCH  12  14
ENDBRANCH  10  12
ENDBRANCH   1  10
BRANCH   2  15
ATOM     15  C   LIG    1       -0.976  -2.364   0.077  0.00  0.00    +0.310 C 
BRANCH  15  16
ATOM     16  O   LIG    1       -0.949  -0.928   0.291  0.00  0.00    -0.340 OA
BRANCH  16  17
ATOM     17  C   LIG    1        0.262  -0.341   0.345  0.00  0.00    +0.520 C 
ATOM     18  O   LIG    1        1.268  -1.009   0.216  0.00  0.00    -0.480 OA
BRANCH  17  19
ATOM     19  C   LIG    1        0.366   1.117   0.560  0.00  0.00    -0.120 A 
ATOM     20  C   LIG    1       -0.788   1.889   0.703  0.00  0.00    +0.150 A 
ATOM     21  C   LIG    1       -0.683   3.249   0.909  0.00  0.00    +0.040 A 
ATOM     22  C   LIG    1        0.562   3.850   0.963  0.00  0.00    +0.140 A 
ATOM     23  C   LIG    1        1.710   3.091   0.817  0.00  0.00    -0.050 A 
ATOM     24  C   LIG    1        1.620   1.730   0.616  0.00  0.00    +0.180 A 
BRANCH  23  25
ATOM     25  N   LIG    1        3.038   3.743   0.877  0.00  0.00    +0.030 N 
ATOM     26  O   LIG    1        3.119   4.945   1.054  0.00  0.00    -0.150 OA
ATOM     27  O   LIG    1        4.050   3.076   0.748  0.00  0.00    -0.150 OA
ENDBRANCH  23  25
ENDBRANCH  17  19
ENDBRANCH  16  17
ENDBRANCH  15  16
ENDBRANCH   2  15
TORSDOF 8
