REMARK  Name = ZINCtV00001bB3p0.0
REMARK                            x       y       z     vdW  Elec       q    Type
REMARK                         _______ _______ _______ _____ _____    ______ ____
ROOT
ATOM      1  C   LIG    1       -2.454   1.381   2.132  0.00  0.00    +0.250 A 
ATOM      2  C   LIG    1       -2.954   0.298   1.412  0.00  0.00    -0.080 A 
ATOM      3  C   LIG    1       -3.750  -0.625   2.028  0.00  0.00    +0.110 A 
ATOM      4  C   LIG    1       -4.074  -0.475   3.384  0.00  0.00    -0.170 A 
ATOM      5  C   LIG    1       -3.573   0.620   4.103  0.00  0.00    +0.080 A 
ATOM      6  C   LIG    1       -2.773   1.534   3.479  0.00  0.00    -0.070 A 
ENDROOT
BRANCH   4   7
ATOM      7  C   LIG    1       -4.932  -1.460   4.048  0.00  0.00    +0.240 C 
ATOM      8  C   LIG    1       -5.734  -1.077   5.085  0.00  0.00    -0.060 C 
BRANCH   8   9
ATOM      9  C   LIG    1       -6.484  -2.091   5.849  0.00  0.00    +0.180 A 
ATOM     10  N   LIG    1       -6.455  -3.362   5.617  0.00  0.00    -0.460 NA
ATOM     11  C   LIG    1       -7.191  -4.162   6.406  0.00  0.00    +0.090 A 
ATOM     12  C   LIG    1       -7.325  -5.568   6.360  0.00  0.00    +0.080 A 
ATOM     13  C   LIG    1       -8.137  -6.217   7.254  0.00  0.00    +0.030 A 
ATOM     14  C   LIG    1       -8.840  -5.507   8.217  0.00  0.00    +0.040 A 
ATOM     15  C   LIG    1       -8.725  -4.136   8.282  0.00  0.00    +0.060 A 
ATOM     16  C   LIG    1       -7.906  -3.458   7.382  0.00  0.00    -0.170 A 
ATOM     17  S   LIG    1       -7.550  -1.742   7.203  0.00  0.00    +0.070 S 
ENDBRANCH   8   9
BRANCH   8  18
ATOM     18  C   LIG    1       -5.848   0.308   5.429  0.00  0.00    +0.250 C 
ATOM     19  N   LIG    1       -5.938   1.407   5.702  0.00  0.00    -0.400 NA
ENDBRANCH   8  18
ENDBRANCH   4   7
BRANCH   1  20
ATOM     20  N   LIG    1       -1.639   2.316   1.502  0.00  0.00    -0.610 N 
BRANCH  20  22
ATOM     21  C   LIG    1       -2.100   4.627   2.154  0.00  0.00    +0.020 C 
ATOM     22  C   LIG    1       -1.117   3.459   2.255  0.00  0.00    +0.270 C 
ENDBRANCH  20  22
BRANCH  20  23
ATOM     23  C   LIG    1       -1.303   2.157   0.085  0.00  0.00    +0.340 C 
BRANCH  23  24
ATOM     24  C   LIG    1       -0.041   1.343  -0.044  0.00  0.00    -0.110 A 
ATOM     25  C   LIG    1        1.189   1.974  -0.067  0.00  0.00    +0.010 A 
ATOM     26  C   LIG    1        2.346   1.228  -0.191  0.00  0.00    +0.000 A 
ATOM     27  C   LIG    1        2.273  -0.148  -0.292  0.00  0.00    +0.000 A 
ATOM     28  C   LIG    1        1.044  -0.779  -0.269  0.00  0.00    +0.000 A 
ATOM     29  C   LIG    1       -0.114  -0.033  -0.145  0.00  0.00    +0.020 A 
ENDBRANCH  23  24
ENDBRANCH  20  23
ENDBRANCH   1  20
TORSDOF 7
