REMARK  Name = ZINCAx0000000h3P.0
REMARK                            x       y       z     vdW  Elec       q    Type
REMARK                         _______ _______ _______ _____ _____    ______ ____
ROOT
ATOM      1  C   LIG    1        4.868   5.736  -0.639  0.00  0.00    +0.010 C 
ATOM      2  C   LIG    1        3.531   6.480  -0.592  0.00  0.00    +0.020 C 
ATOM      3  C   LIG    1        2.673   5.907   0.541  0.00  0.00    +0.270 C 
ATOM      4  N   LIG    1        2.550   4.455   0.353  0.00  0.00    -0.610 N 
ATOM      5  C   LIG    1        3.773   3.655   0.210  0.00  0.00    +0.260 C 
ATOM      6  C   LIG    1        1.337   3.868   0.318  0.00  0.00    +0.520 C 
ATOM      7  O   LIG    1        0.333   4.548   0.349  0.00  0.00    -0.530 OA
ATOM      8  C   LIG    1        4.619   4.253  -0.924  0.00  0.00    +0.020 C 
ENDROOT
BRANCH   6   9
ATOM      9  C   LIG    1        1.229   2.367   0.240  0.00  0.00    +0.000 C 
ATOM     10  C   LIG    1        1.117   1.938  -1.226  0.00  0.00    +0.040 C 
ATOM     11  C   LIG    1        0.947   0.417  -1.292  0.00  0.00    +0.170 C 
ATOM     12  C   LIG    1       -0.291   0.011  -0.489  0.00  0.00    +0.150 C 
ATOM     13  N   LIG    1       -0.135   0.444   0.905  0.00  0.00    -0.520 NA
ATOM     14  C   LIG    1       -0.017   1.905   0.999  0.00  0.00    +0.210 C 
BRANCH  11  15
ATOM     15  O   LIG    1        0.785   0.015  -2.654  0.00  0.00    -0.380 OA
ATOM     16  C   LIG    1        1.278  -1.297  -2.935  0.00  0.00    +0.200 C 
ENDBRANCH  11  15
BRANCH  13  17
ATOM     17  C   LIG    1       -1.241  -0.050   1.737  0.00  0.00    +0.340 C 
BRANCH  17  18
ATOM     18  C   LIG    1       -2.527   0.604   1.301  0.00  0.00    -0.060 A 
ATOM     19  C   LIG    1       -3.435   0.104   0.431  0.00  0.00    +0.150 A 
ATOM     20  N   LIG    1       -4.421   1.027   0.343  0.00  0.00    -0.260 N 
ATOM     21  N   LIG    1       -4.119   2.014   1.113  0.00  0.00    -0.080 NA
ATOM     22  N   LIG    1       -2.998   1.790   1.703  0.00  0.00    -0.250 NA
BRANCH  20  23
ATOM     23  C   LIG    1       -5.625   0.921  -0.485  0.00  0.00    +0.200 C 
ATOM     24  C   LIG    1       -5.623  -0.124  -1.603  0.00  0.00    +0.070 C 
ATOM     25  C   LIG    1       -5.518   1.363  -1.946  0.00  0.00    +0.070 C 
ENDBRANCH  20  23
ENDBRANCH  17  18
ENDBRANCH  13  17
ENDBRANCH   6   9
BRANCH   1  26
ATOM     26  C   LIG    1        5.742   6.329  -1.747  0.00  0.00    +0.080 C 
BRANCH  26  32
ATOM     27  C   LIG    1        8.063   6.161  -0.791  0.00  0.00    -0.130 A 
ATOM     28  C   LIG    1        9.327   5.570  -0.754  0.00  0.00    +0.080 A 
ATOM     29  C   LIG    1        9.626   4.533  -1.614  0.00  0.00    -0.010 A 
ATOM     30  C   LIG    1        8.677   4.078  -2.511  0.00  0.00    +0.050 A 
ATOM     31  C   LIG    1        7.420   4.656  -2.550  0.00  0.00    +0.000 A 
ATOM     32  C   LIG    1        7.109   5.697  -1.700  0.00  0.00    -0.010 A 
BRANCH  27  33
ATOM     33  C   LIG    1        7.736   7.271   0.127  0.00  0.00    +0.500 C 
ATOM     34  O   LIG    1        6.608   7.721   0.157  0.00  0.00    -0.490 OA
BRANCH  33  36
ATOM     35  C   LIG    1        8.295   8.873   1.806  0.00  0.00    +0.260 C 
ATOM     36  O   LIG    1        8.688   7.784   0.930  0.00  0.00    -0.360 OA
ENDBRANCH  33  36
ENDBRANCH  27  33
ENDBRANCH  26  32
ENDBRANCH   1  26
TORSDOF 9
