REMARK  Name = ZINCnE000001PKrV.0
REMARK                            x       y       z     vdW  Elec       q    Type
REMARK                         _______ _______ _______ _____ _____    ______ ____
ROOT
ATOM      1  S   LIG    1        3.889   2.323  -0.022  0.00  0.00    +2.610 S 
ATOM      2  O   LIG    1        3.533   3.698   0.023  0.00  0.00    -1.030 OA
ATOM      3  O   LIG    1        4.688   1.760  -1.054  0.00  0.00    -1.020 OA
ENDROOT
BRANCH   1   4
ATOM      4  C   LIG    1        2.377   1.417  -0.013  0.00  0.00    -0.640 A 
ATOM      5  C   LIG    1        1.170   2.088   0.002  0.00  0.00    +0.150 A 
ATOM      6  C   LIG    1       -0.017   1.378   0.010  0.00  0.00    -0.040 A 
ATOM      7  C   LIG    1        0.002  -0.004   0.002  0.00  0.00    +0.080 A 
ATOM      8  C   LIG    1        1.207  -0.680  -0.013  0.00  0.00    -0.080 A 
ATOM      9  C   LIG    1        2.399   0.030  -0.020  0.00  0.00    +0.210 A 
BRANCH   9  10
ATOM     10  O   LIG    1        3.586  -0.632  -0.035  0.00  0.00    -0.290 OA
BRANCH  10  11
ATOM     11  C   LIG    1        3.531  -2.060  -0.042  0.00  0.00    +0.600 C 
ATOM     12  F   LIG    1        2.844  -2.495  -1.181  0.00  0.00    -0.200 F 
ATOM     13  F   LIG    1        2.866  -2.507   1.104  0.00  0.00    -0.200 F 
ENDBRANCH  10  11
ENDBRANCH   9  10
ENDBRANCH   1   4
BRANCH   1  14
ATOM     14  N   LIG    1        4.666   1.994   1.403  0.00  0.00    -1.080 NA
BRANCH  14  19
ATOM     15  C   LIG    1        9.695   4.382   2.497  0.00  0.00    +0.070 C 
ATOM     16  C   LIG    1        8.360   3.747   2.208  0.00  0.00    -0.220 A 
ATOM     17  C   LIG    1        7.709   4.020   1.020  0.00  0.00    +0.050 A 
ATOM     18  C   LIG    1        6.485   3.440   0.750  0.00  0.00    -0.170 A 
ATOM     19  C   LIG    1        5.904   2.580   1.675  0.00  0.00    +0.290 A 
ATOM     20  C   LIG    1        6.553   2.310   2.872  0.00  0.00    -0.170 A 
ATOM     21  C   LIG    1        5.924   1.383   3.879  0.00  0.00    +0.090 C 
ATOM     22  C   LIG    1        7.784   2.889   3.135  0.00  0.00    +0.140 A 
BRANCH  22  23
ATOM     23  O   LIG    1        8.425   2.622   4.303  0.00  0.00    -0.500 OA
ATOM     24  H   LIG    1        8.203   3.230   5.022  0.00  0.00    +0.370 HD
ENDBRANCH  22  23
ENDBRANCH  14  19
ENDBRANCH   1  14
TORSDOF 6
