REMARK  Name = ZINCpk00000e9hlP.0
REMARK                            x       y       z     vdW  Elec       q    Type
REMARK                         _______ _______ _______ _____ _____    ______ ____
ROOT
ATOM      1  N   LIG    1        1.186   3.534  -0.175  0.00  0.00    -0.470 N 
ENDROOT
BRANCH   1   2
ATOM      2  C   LIG    1        2.359   4.240   0.020  0.00  0.00    +0.400 A 
ATOM      3  C   LIG    1        2.495   5.118   1.126  0.00  0.00    -0.140 A 
ATOM      4  C   LIG    1        3.707   5.800   1.264  0.00  0.00    +0.090 A 
ATOM      5  S   LIG    1        3.650   6.822   2.692  0.00  0.00    +0.170 S 
ATOM      6  C   LIG    1        2.015   6.316   3.071  0.00  0.00    -0.180 A 
ATOM      7  C   LIG    1        1.226   6.809   4.257  0.00  0.00    +0.150 C 
ATOM      8  N   LIG    1        4.674   5.600   0.359  0.00  0.00    -0.490 NA
ATOM      9  C   LIG    1        4.498   4.776  -0.648  0.00  0.00    +0.520 A 
ATOM     10  C   LIG    1        1.562   5.449   2.187  0.00  0.00    -0.060 A 
ATOM     11  C   LIG    1        0.183   4.848   2.271  0.00  0.00    +0.130 C 
ATOM     12  N   LIG    1        3.374   4.104  -0.819  0.00  0.00    -0.550 NA
ENDBRANCH   1   2
BRANCH   1  14
ATOM     13  C   LIG    1        0.032   5.258  -1.476  0.00  0.00    +0.030 C 
ATOM     14  C   LIG    1        0.601   3.838  -1.488  0.00  0.00    +0.200 C 
ENDBRANCH   1  14
BRANCH   1  15
ATOM     15  C   LIG    1        1.409   2.090  -0.020  0.00  0.00    +0.240 C 
BRANCH  15  16
ATOM     16  C   LIG    1        0.084   1.394   0.159  0.00  0.00    +0.520 C 
ATOM     17  N   LIG    1        0.031   0.048   0.202  0.00  0.00    -0.720 N 
ATOM     18  H   LIG    1        0.845  -0.473   0.117  0.00  0.00    +0.410 HD
ATOM     19  O   LIG    1       -0.934   2.045   0.260  0.00  0.00    -0.500 OA
BRANCH  17  20
ATOM     20  C   LIG    1       -1.257  -0.629   0.376  0.00  0.00    +0.270 C 
ATOM     21  C   LIG    1       -1.183  -2.056  -0.195  0.00  0.00    +0.070 C 
ATOM     22  C   LIG    1       -2.410  -2.849   0.297  0.00  0.00    -0.310 C 
ATOM     23  S   LIG    1       -2.863  -2.082   1.895  0.00  0.00    +2.390 S 
ATOM     24  O   LIG    1       -2.596  -2.997   2.949  0.00  0.00    -0.930 OA
ATOM     25  O   LIG    1       -4.148  -1.486   1.784  0.00  0.00    -0.930 OA
ATOM     26  C   LIG    1       -1.583  -0.770   1.885  0.00  0.00    -0.320 C 
ENDBRANCH  17  20
ENDBRANCH  15  16
ENDBRANCH   1  15
TORSDOF 5
