REMARK  Name = ZINCrH00000No4LJ.0
REMARK                            x       y       z     vdW  Elec       q    Type
REMARK                         _______ _______ _______ _____ _____    ______ ____
ROOT
ATOM      1  C   LIG    1        0.002  -0.004   0.009  0.00  0.00    -0.070 C 
ATOM      2  C   LIG    1       -1.158  -0.695   0.014  0.00  0.00    +0.150 C 
ENDROOT
BRANCH   2   3
ATOM      3  C   LIG    1       -1.137  -2.164   0.015  0.00  0.00    -0.090 A 
ATOM      4  C   LIG    1        0.081  -2.852   0.009  0.00  0.00    +0.170 A 
ATOM      5  C   LIG    1        0.092  -4.230   0.010  0.00  0.00    -0.070 A 
ATOM      6  C   LIG    1       -1.098  -4.939   0.017  0.00  0.00    +0.170 A 
ATOM      7  C   LIG    1       -2.309  -4.273   0.023  0.00  0.00    -0.030 A 
ATOM      8  C   LIG    1       -2.341  -2.888   0.026  0.00  0.00    +0.190 A 
BRANCH   5   9
ATOM      9  N   LIG    1        1.382  -4.956   0.005  0.00  0.00    +0.030 N 
ATOM     10  O   LIG    1        1.395  -6.174   0.005  0.00  0.00    -0.150 OA
ATOM     11  O   LIG    1        2.430  -4.336  -0.001  0.00  0.00    -0.160 OA
ENDBRANCH   5   9
BRANCH   8  12
ATOM     12  O   LIG    1       -3.530  -2.233   0.037  0.00  0.00    -0.300 OA
BRANCH  12  13
ATOM     13  C   LIG    1       -4.712  -3.035   0.048  0.00  0.00    +0.610 C 
ATOM     14  F   LIG    1       -4.717  -3.842   1.191  0.00  0.00    -0.190 F 
ATOM     15  F   LIG    1       -4.738  -3.844  -1.093  0.00  0.00    -0.190 F 
ENDBRANCH  12  13
ENDBRANCH   8  12
ENDBRANCH   2   3
BRANCH   1  17
ATOM     16  O   LIG    1       -1.080   2.052   0.008  0.00  0.00    -0.510 OA
ATOM     17  C   LIG    1       -0.018   1.458   0.008  0.00  0.00    +0.550 C 
ATOM     18  N   LIG    1        1.140   2.147   0.003  0.00  0.00    -0.670 N 
ATOM     19  H   LIG    1        1.986   1.676   0.067  0.00  0.00    +0.420 HD
BRANCH  18  20
ATOM     20  C   LIG    1        1.123   3.542  -0.095  0.00  0.00    +0.150 A 
ATOM     21  C   LIG    1        2.125   4.204  -0.793  0.00  0.00    +0.060 A 
ATOM     22  C   LIG    1        2.102   5.581  -0.891  0.00  0.00    +0.050 A 
ATOM     23  C   LIG    1        1.088   6.302  -0.288  0.00  0.00    +0.090 A 
ATOM     24  C   LIG    1        0.091   5.647   0.412  0.00  0.00    -0.020 A 
ATOM     25  C   LIG    1        0.105   4.270   0.510  0.00  0.00    +0.110 A 
BRANCH  24  26
ATOM     26  N   LIG    1       -0.992   6.423   1.057  0.00  0.00    +0.030 N 
ATOM     27  O   LIG    1       -1.005   7.638   0.970  0.00  0.00    -0.150 OA
ATOM     28  O   LIG    1       -1.870   5.847   1.673  0.00  0.00    -0.150 OA
ENDBRANCH  24  26
ENDBRANCH  18  20
ENDBRANCH   1  17
TORSDOF 7
