REMARK  Name = ZINCvU00000006Bg.0
REMARK                            x       y       z     vdW  Elec       q    Type
REMARK                         _______ _______ _______ _____ _____    ______ ____
ROOT
ATOM      1  N   LIG    1        7.180  -1.380   4.123  0.00  0.00    -0.610 N 
ATOM      2  C   LIG    1        6.400  -1.667   3.062  0.00  0.00    +0.520 C 
ATOM      3  O   LIG    1        6.311  -2.811   2.667  0.00  0.00    -0.520 OA
ENDROOT
BRANCH   1   4
ATOM      4  C   LIG    1        7.289   0.001   4.600  0.00  0.00    +0.280 C 
BRANCH   4   6
ATOM      5  C   LIG    1        6.319   1.707   6.147  0.00  0.00    +0.030 C 
ATOM      6  C   LIG    1        6.206   0.265   5.649  0.00  0.00    +0.000 C 
ENDBRANCH   4   6
ENDBRANCH   1   4
BRANCH   2   7
ATOM      7  C   LIG    1        5.640  -0.568   2.366  0.00  0.00    +0.060 C 
BRANCH   7   8
ATOM      8  C   LIG    1        4.839  -1.158   1.204  0.00  0.00    +0.160 C 
BRANCH   8   9
ATOM      9  C   LIG    1        4.079  -0.059   0.508  0.00  0.00    -0.000 A 
ATOM     10  C   LIG    1        4.533   0.678  -0.524  0.00  0.00    -0.050 A 
ATOM     11  C   LIG    1        3.510   1.585  -0.865  0.00  0.00    -0.030 A 
ATOM     12  C   LIG    1        2.477   1.349  -0.013  0.00  0.00    +0.020 A 
ATOM     13  O   LIG    1        2.838   0.353   0.818  0.00  0.00    -0.160 OA
BRANCH  12  14
ATOM     14  C   LIG    1        1.184   2.064   0.002  0.00  0.00    -0.060 A 
ATOM     15  C   LIG    1        1.155   3.459   0.009  0.00  0.00    +0.080 A 
ATOM     16  C   LIG    1       -0.056   4.122   0.024  0.00  0.00    +0.010 A 
ATOM     17  C   LIG    1       -1.240   3.407   0.031  0.00  0.00    +0.060 A 
ATOM     18  C   LIG    1       -1.221   2.023   0.019  0.00  0.00    -0.010 A 
ATOM     19  C   LIG    1       -0.016   1.347   0.009  0.00  0.00    +0.120 A 
ATOM     20  F   LIG    1        0.002  -0.004   0.002  0.00  0.00    -0.130 F 
ENDBRANCH  12  14
ENDBRANCH   8   9
ENDBRANCH   7   8
ENDBRANCH   2   7
BRANCH   1  21
ATOM     21  C   LIG    1        7.919  -2.449   4.800  0.00  0.00    +0.460 C 
BRANCH  21  22
ATOM     22  C   LIG    1        9.276  -2.602   4.163  0.00  0.00    +0.150 A 
ATOM     23  N   LIG    1       10.364  -1.974   4.511  0.00  0.00    -0.260 NA
ATOM     24  N   LIG    1       11.338  -2.348   3.757  0.00  0.00    -0.260 NA
ATOM     25  C   LIG    1       10.897  -3.231   2.887  0.00  0.00    +0.250 A 
ATOM     26  O   LIG    1        9.582  -3.408   3.130  0.00  0.00    -0.200 OA
BRANCH  25  27
ATOM     27  C   LIG    1       11.690  -3.900   1.845  0.00  0.00    +0.030 A 
ATOM     28  C   LIG    1       13.019  -3.715   1.608  0.00  0.00    +0.060 A 
ATOM     29  C   LIG    1       13.358  -4.551   0.528  0.00  0.00    -0.050 A 
ATOM     30  C   LIG    1       12.234  -5.200   0.161  0.00  0.00    +0.230 A 
ATOM     31  O   LIG    1       11.230  -4.808   0.961  0.00  0.00    -0.160 OA
ENDBRANCH  25  27
ENDBRANCH  21  22
ENDBRANCH   1  21
TORSDOF 9
