REMARK  Name = ZINCah0000002GjM.0
REMARK                            x       y       z     vdW  Elec       q    Type
REMARK                         _______ _______ _______ _____ _____    ______ ____
ROOT
ATOM      1  C   LIG    1        0.495   4.086   0.019  0.00  0.00    +0.120 A 
ATOM      2  C   LIG    1       -0.812   3.624   0.029  0.00  0.00    +0.020 A 
ATOM      3  C   LIG    1       -1.067   2.265   0.019  0.00  0.00    +0.060 A 
ATOM      4  C   LIG    1       -0.016   1.362   0.009  0.00  0.00    +0.020 A 
ATOM      5  O   LIG    1        0.002  -0.004   0.002  0.00  0.00    -0.310 OA
ATOM      6  C   LIG    1        1.336  -0.372   0.400  0.00  0.00    +0.440 C 
ATOM      7  O   LIG    1        2.138   0.749  -0.015  0.00  0.00    -0.310 OA
ATOM      8  C   LIG    1        1.298   1.824  -0.001  0.00  0.00    +0.050 A 
ATOM      9  C   LIG    1        1.550   3.186   0.004  0.00  0.00    +0.010 A 
ENDROOT
BRANCH   1  10
ATOM     10  O   LIG    1        0.743   5.423   0.023  0.00  0.00    -0.490 OA
ATOM     11  H   LIG    1        0.806   5.815  -0.859  0.00  0.00    +0.400 HD
ENDBRANCH   1  10
TORSDOF 1
