REMARK  Name = ZINCrD00000F5LII.0
REMARK                            x       y       z     vdW  Elec       q    Type
REMARK                         _______ _______ _______ _____ _____    ______ ____
ROOT
ATOM      1  C   LIG    1        3.549   0.750  -0.028  0.00  0.00    +0.600 C 
ATOM      2  N   LIG    1        4.197   1.931  -0.028  0.00  0.00    -0.730 N 
ATOM      3  H   LIG    1        3.693   2.760  -0.018  0.00  0.00    +0.400 HD
ATOM      4  O   LIG    1        4.181  -0.290  -0.039  0.00  0.00    -0.550 OA
ENDROOT
BRANCH   1   9
ATOM      5  C   LIG    1       -1.175  -0.876   0.008  0.00  0.00    +0.360 C 
ATOM      6  N   LIG    1        0.002  -0.004   0.002  0.00  0.00    -0.360 N 
ATOM      7  N   LIG    1       -0.017   1.395   0.010  0.00  0.00    -0.290 NA
ATOM      8  C   LIG    1        1.211   1.834   0.000  0.00  0.00    +0.270 A 
ATOM      9  C   LIG    1        2.075   0.717  -0.014  0.00  0.00    -0.300 A 
ATOM     10  C   LIG    1        1.281  -0.412  -0.012  0.00  0.00    +0.170 A 
BRANCH  10  11
ATOM     11  C   LIG    1        1.761  -1.841  -0.025  0.00  0.00    +0.180 C 
BRANCH  11  12
ATOM     12  C   LIG    1        1.908  -2.309  -1.450  0.00  0.00    -0.080 A 
ATOM     13  C   LIG    1        0.843  -2.911  -2.093  0.00  0.00    +0.000 A 
ATOM     14  C   LIG    1        0.976  -3.336  -3.401  0.00  0.00    +0.000 A 
ATOM     15  C   LIG    1        2.178  -3.169  -4.063  0.00  0.00    +0.000 A 
ATOM     16  C   LIG    1        3.245  -2.573  -3.418  0.00  0.00    +0.000 A 
ATOM     17  C   LIG    1        3.110  -2.143  -2.111  0.00  0.00    +0.040 A 
ENDBRANCH  11  12
ENDBRANCH  10  11
ENDBRANCH   1   9
BRANCH   2  18
ATOM     18  C   LIG    1        5.661   1.964  -0.041  0.00  0.00    +0.310 C 
BRANCH  18  19
ATOM     19  C   LIG    1        6.139   3.418  -0.038  0.00  0.00    -0.020 C 
ATOM     20  C   LIG    1        7.643   3.667  -0.170  0.00  0.00    -0.010 C 
ATOM     21  C   LIG    1        8.121   5.058  -0.608  0.00  0.00    +0.110 C 
ATOM     22  C   LIG    1        7.682   6.033   0.458  0.00  0.00    -0.090 A 
ATOM     23  C   LIG    1        7.861   7.407   0.532  0.00  0.00    +0.010 A 
ATOM     24  C   LIG    1        7.372   8.117   1.610  0.00  0.00    +0.010 A 
ATOM     25  C   LIG    1        6.700   7.456   2.621  0.00  0.00    +0.010 A 
ATOM     26  C   LIG    1        6.521   6.089   2.550  0.00  0.00    +0.020 A 
ATOM     27  C   LIG    1        7.012   5.374   1.467  0.00  0.00    -0.070 A 
ATOM     28  C   LIG    1        6.940   3.895   1.175  0.00  0.00    +0.000 C 
ENDBRANCH  18  19
ENDBRANCH   2  18
TORSDOF 5
