REMARK  Name = ZINCqH000000924E.0
REMARK                            x       y       z     vdW  Elec       q    Type
REMARK                         _______ _______ _______ _____ _____    ______ ____
ROOT
ATOM      1  N   LIG    1        0.086  -0.010   2.459  0.00  0.00    -0.740 N 
ATOM      2  H   LIG    1       -0.800   0.373   2.358  0.00  0.00    +0.400 HD
ATOM      3  C   LIG    1        0.541  -0.343   3.683  0.00  0.00    +0.700 C 
ATOM      4  N   LIG    1       -0.234  -0.143   4.767  0.00  0.00    -0.690 N 
ATOM      5  H   LIG    1       -1.087   0.310   4.677  0.00  0.00    +0.410 HD
ATOM      6  O   LIG    1        1.651  -0.823   3.809  0.00  0.00    -0.570 OA
ENDROOT
BRANCH   4   7
ATOM      7  C   LIG    1        0.193  -0.589   6.024  0.00  0.00    +0.170 A 
ATOM      8  C   LIG    1        0.948  -1.749   6.130  0.00  0.00    +0.030 A 
ATOM      9  C   LIG    1        1.372  -2.184   7.371  0.00  0.00    +0.030 A 
ATOM     10  C   LIG    1        1.034  -1.472   8.507  0.00  0.00    +0.000 A 
ATOM     11  C   LIG    1        0.277  -0.319   8.405  0.00  0.00    -0.090 A 
ATOM     12  C   LIG    1       -0.145   0.124   7.167  0.00  0.00    +0.000 A 
BRANCH  11  13
ATOM     13  C   LIG    1       -0.088   0.455   9.645  0.00  0.00    +0.350 C 
BRANCH  13  14
ATOM     14  N   LIG    1       -1.361  -0.042  10.173  0.00  0.00    -0.620 N 
ATOM     15  C   LIG    1       -1.485  -1.129  11.151  0.00  0.00    +0.250 C 
ATOM     16  C   LIG    1       -2.958  -1.587  11.074  0.00  0.00    +0.040 C 
ATOM     17  C   LIG    1       -3.658  -0.310  10.554  0.00  0.00    +0.040 C 
ATOM     18  C   LIG    1       -2.566   0.445   9.829  0.00  0.00    +0.520 C 
ATOM     19  O   LIG    1       -2.751   1.355   9.049  0.00  0.00    -0.530 OA
ENDBRANCH  13  14
ENDBRANCH  11  13
ENDBRANCH   4   7
BRANCH   1  20
ATOM     20  C   LIG    1        0.928  -0.227   1.280  0.00  0.00    +0.290 C 
BRANCH  20  22
ATOM     21  C   LIG    1       -0.045   1.744   0.091  0.00  0.00    +0.030 C 
ATOM     22  C   LIG    1        0.179   0.231   0.027  0.00  0.00    +0.030 C 
BRANCH  22  23
ATOM     23  C   LIG    1        0.994  -0.104  -1.196  0.00  0.00    -0.080 A 
ATOM     24  C   LIG    1        2.258   0.432  -1.353  0.00  0.00    +0.010 A 
ATOM     25  C   LIG    1        3.007   0.121  -2.472  0.00  0.00    +0.000 A 
ATOM     26  C   LIG    1        2.488  -0.719  -3.439  0.00  0.00    +0.000 A 
ATOM     27  C   LIG    1        1.221  -1.252  -3.285  0.00  0.00    +0.000 A 
ATOM     28  C   LIG    1        0.474  -0.944  -2.163  0.00  0.00    +0.010 A 
ENDBRANCH  22  23
ENDBRANCH  20  22
ENDBRANCH   1  20
TORSDOF 6
