REMARK  Name = ZINCnE00000rhohl.0
REMARK                            x       y       z     vdW  Elec       q    Type
REMARK                         _______ _______ _______ _____ _____    ______ ____
ROOT
ATOM      1  N   LIG    1       -2.458   3.822   0.046  0.00  0.00    -0.700 N 
ATOM      2  H   LIG    1       -2.470   4.792   0.051  0.00  0.00    +0.390 HD
ENDROOT
BRANCH   1   6
ATOM      3  C   LIG    1        1.179   1.785   0.000  0.00  0.00    +0.040 A 
ATOM      4  C   LIG    1       -0.013   1.076   0.008  0.00  0.00    -0.040 A 
ATOM      5  C   LIG    1       -1.218   1.750   0.017  0.00  0.00    -0.060 A 
ATOM      6  C   LIG    1       -1.237   3.138   0.031  0.00  0.00    +0.250 A 
ATOM      7  C   LIG    1       -0.043   3.848   0.023  0.00  0.00    -0.040 A 
ATOM      8  C   LIG    1        1.161   3.172   0.008  0.00  0.00    -0.070 A 
ATOM      9  C   LIG    1        2.457   3.942  -0.001  0.00  0.00    +0.080 C 
BRANCH   3  10
ATOM     10  O   LIG    1        2.365   1.121  -0.014  0.00  0.00    -0.320 OA
BRANCH  10  11
ATOM     11  C   LIG    1        2.309  -0.307  -0.021  0.00  0.00    +0.160 C 
BRANCH  11  13
ATOM     12  C   LIG    1        3.671  -2.402  -0.044  0.00  0.00    +0.030 C 
ATOM     13  C   LIG    1        3.731  -0.873  -0.037  0.00  0.00    +0.020 C 
ENDBRANCH  11  13
ENDBRANCH  10  11
ENDBRANCH   3  10
ENDBRANCH   1   6
BRANCH   1  14
ATOM     14  C   LIG    1       -3.717   3.073   0.054  0.00  0.00    +0.260 C 
ATOM     15  C   LIG    1       -4.172   2.767  -1.388  0.00  0.00    -0.010 C 
ATOM     16  C   LIG    1       -5.704   2.904  -1.403  0.00  0.00    +0.000 C 
ATOM     17  C   LIG    1       -6.127   3.289   0.029  0.00  0.00    +0.020 C 
ATOM     18  C   LIG    1       -4.859   3.939   0.640  0.00  0.00    +0.000 C 
BRANCH  18  19
ATOM     19  C   LIG    1       -4.881   3.846   2.167  0.00  0.00    +0.070 C 
BRANCH  19  20
ATOM     20  C   LIG    1       -3.567   4.336   2.719  0.00  0.00    +0.470 C 
ATOM     21  O   LIG    1       -2.539   3.726   2.479  0.00  0.00    -0.670 OA
ATOM     22  O   LIG    1       -3.531   5.343   3.406  0.00  0.00    -0.690 OA
ENDBRANCH  19  20
BRANCH  19  23
ATOM     23  O   LIG    1       -5.943   4.654   2.679  0.00  0.00    -0.370 OA
ATOM     24  C   LIG    1       -6.501   4.174   3.904  0.00  0.00    +0.170 C 
ENDBRANCH  19  23
ENDBRANCH  18  19
ENDBRANCH   1  14
TORSDOF 8
