REMARK  Name = ZINCc70000002Asr.0
REMARK                            x       y       z     vdW  Elec       q    Type
REMARK                         _______ _______ _______ _____ _____    ______ ____
ROOT
ATOM      1  C   LIG    1       -0.018   1.468   0.010  0.00  0.00    -0.450 C 
ATOM      2  C   LIG    1       -0.738   1.964   1.268  0.00  0.00    +0.080 C 
ATOM      3  C   LIG    1       -2.196   1.491   1.228  0.00  0.00    +0.220 C 
ATOM      4  O   LIG    1       -2.821   1.973   0.037  0.00  0.00    -0.370 OA
ATOM      5  C   LIG    1       -2.217   1.504  -1.170  0.00  0.00    +0.230 C 
ATOM      6  C   LIG    1       -0.762   1.977  -1.228  0.00  0.00    +0.070 C 
ENDROOT
BRANCH   1   8
ATOM      7  C   LIG    1        2.357   1.387   1.524  0.00  0.00    -0.240 C 
ATOM      8  S   LIG    1        1.683   2.098  -0.003  0.00  0.00    +2.430 S 
ATOM      9  O   LIG    1        1.643   3.512   0.135  0.00  0.00    -0.910 OA
ATOM     10  O   LIG    1        2.369   1.527  -1.109  0.00  0.00    -0.920 OA
ENDBRANCH   1   8
BRANCH   1  11
ATOM     11  C   LIG    1        0.002  -0.004   0.002  0.00  0.00    +0.210 C 
ATOM     12  N   LIG    1        0.018  -1.140  -0.004  0.00  0.00    -0.370 NA
ENDBRANCH   1  11
TORSDOF 2
