REMARK  Name = ZINCvU00000005xU.0
REMARK                            x       y       z     vdW  Elec       q    Type
REMARK                         _______ _______ _______ _____ _____    ______ ____
ROOT
ATOM      1  C   LIG    1        5.827  -1.145  -0.105  0.00  0.00    +0.150 A 
ATOM      2  N   LIG    1        5.122  -2.242  -0.271  0.00  0.00    -0.290 NA
ATOM      3  N   LIG    1        3.869  -1.986  -0.143  0.00  0.00    -0.270 NA
ATOM      4  C   LIG    1        3.695  -0.710   0.113  0.00  0.00    +0.240 A 
ATOM      5  N   LIG    1        4.944  -0.129   0.139  0.00  0.00    -0.410 N 
ENDROOT
BRANCH   5   6
ATOM      6  C   LIG    1        5.246   1.220   0.372  0.00  0.00    +0.090 A 
ATOM      7  C   LIG    1        4.891   2.183  -0.563  0.00  0.00    +0.040 A 
ATOM      8  C   LIG    1        5.185   3.512  -0.328  0.00  0.00    +0.030 A 
ATOM      9  C   LIG    1        5.843   3.882   0.831  0.00  0.00    -0.060 A 
ATOM     10  C   LIG    1        6.203   2.924   1.761  0.00  0.00    +0.030 A 
ATOM     11  C   LIG    1        6.168   5.332   1.081  0.00  0.00    +0.100 C 
ATOM     12  C   LIG    1        5.906   1.594   1.534  0.00  0.00    +0.040 A 
ENDBRANCH   5   6
BRANCH   4  13
ATOM     13  C   LIG    1        2.402  -0.025   0.325  0.00  0.00    -0.030 A 
ATOM     14  C   LIG    1        2.365   1.226   0.942  0.00  0.00    +0.030 A 
ATOM     15  C   LIG    1        1.155   1.859   1.138  0.00  0.00    +0.020 A 
ATOM     16  C   LIG    1       -0.020   1.257   0.724  0.00  0.00    -0.050 A 
ATOM     17  C   LIG    1        0.010   0.016   0.112  0.00  0.00    +0.020 A 
ATOM     18  C   LIG    1        1.213  -0.628  -0.090  0.00  0.00    +0.070 A 
BRANCH  16  19
ATOM     19  C   LIG    1       -1.338   1.952   0.947  0.00  0.00    -0.030 C 
ATOM     20  C   LIG    1       -1.546   2.182   2.445  0.00  0.00    +0.040 C 
ATOM     21  C   LIG    1       -2.472   1.081   0.403  0.00  0.00    +0.030 C 
ATOM     22  C   LIG    1       -1.335   3.298   0.220  0.00  0.00    +0.040 C 
ENDBRANCH  16  19
ENDBRANCH   4  13
BRANCH   1  23
ATOM     23  S   LIG    1        7.582  -1.007  -0.190  0.00  0.00    +0.090 S 
BRANCH  23  24
ATOM     24  C   LIG    1        8.015  -2.727  -0.546  0.00  0.00    +0.110 C 
BRANCH  24  27
ATOM     25  N   LIG    1       10.069  -4.053  -0.929  0.00  0.00    -0.720 N 
ATOM     26  H   LIG    1        9.505  -4.834  -1.043  0.00  0.00    +0.400 HD
ATOM     27  C   LIG    1        9.512  -2.854  -0.665  0.00  0.00    +0.540 C 
ATOM     28  O   LIG    1       10.217  -1.877  -0.522  0.00  0.00    -0.520 OA
BRANCH  25  29
ATOM     29  C   LIG    1       11.524  -4.175  -1.044  0.00  0.00    +0.230 C 
ATOM     30  C   LIG    1       11.954  -3.826  -2.471  0.00  0.00    +0.020 C 
BRANCH  29  32
ATOM     31  C   LIG    1       11.624  -5.920   0.741  0.00  0.00    +0.020 C 
ATOM     32  C   LIG    1       11.941  -5.612  -0.724  0.00  0.00    +0.020 C 
ENDBRANCH  29  32
ENDBRANCH  25  29
ENDBRANCH  24  27
ENDBRANCH  23  24
ENDBRANCH   1  23
TORSDOF 8
