REMARK  Name = ZINCrH000004v6M1.0
REMARK                            x       y       z     vdW  Elec       q    Type
REMARK                         _______ _______ _______ _____ _____    ______ ____
ROOT
ATOM      1  O   LIG    1       -6.053   3.684   2.718  0.00  0.00    -0.510 OA
ATOM      2  C   LIG    1       -6.057   3.696   1.502  0.00  0.00    +0.570 C 
ATOM      3  N   LIG    1       -7.033   4.346   0.837  0.00  0.00    -0.670 N 
ATOM      4  H   LIG    1       -7.000   4.412  -0.130  0.00  0.00    +0.410 HD
ENDROOT
BRANCH   2   5
ATOM      5  C   LIG    1       -4.994   2.997   0.754  0.00  0.00    -0.120 A 
ATOM      6  C   LIG    1       -4.997   3.010  -0.642  0.00  0.00    +0.080 A 
ATOM      7  C   LIG    1       -4.003   2.356  -1.342  0.00  0.00    -0.040 A 
ATOM      8  C   LIG    1       -2.999   1.687  -0.655  0.00  0.00    +0.110 A 
ATOM      9  O   LIG    1       -2.015   1.039  -1.341  0.00  0.00    -0.310 OA
ATOM     10  C   LIG    1       -0.706   1.603  -1.238  0.00  0.00    +0.230 C 
ATOM     11  C   LIG    1       -0.002   1.107   0.015  0.00  0.00    +0.000 C 
ATOM     12  C   LIG    1       -0.692   1.574   1.288  0.00  0.00    +0.230 C 
ATOM     13  O   LIG    1       -1.998   1.008   1.395  0.00  0.00    -0.310 OA
ATOM     14  C   LIG    1       -2.991   1.671   0.735  0.00  0.00    +0.070 A 
ATOM     15 CL   LIG    1       -4.007   2.372  -3.078  0.00  0.00    -0.040 Cl
ATOM     16  C   LIG    1       -3.981   2.322   1.443  0.00  0.00    +0.110 A 
ENDBRANCH   2   5
BRANCH   3  17
ATOM     17  C   LIG    1       -8.094   4.926   1.543  0.00  0.00    +0.120 A 
ATOM     18  C   LIG    1       -9.369   4.942   0.991  0.00  0.00    +0.020 A 
ATOM     19  C   LIG    1      -10.416   5.510   1.688  0.00  0.00    -0.010 A 
ATOM     20  C   LIG    1      -10.193   6.074   2.937  0.00  0.00    +0.170 A 
ATOM     21  C   LIG    1       -8.918   6.063   3.487  0.00  0.00    +0.030 A 
ATOM     22  C   LIG    1       -7.872   5.491   2.792  0.00  0.00    +0.060 A 
BRANCH  20  23
ATOM     23  N   LIG    1      -11.255   6.656   3.643  0.00  0.00    -0.570 N 
ATOM     24  C   LIG    1      -12.647   6.741   3.176  0.00  0.00    +0.260 C 
ATOM     25  C   LIG    1      -13.377   7.460   4.327  0.00  0.00    +0.260 C 
ATOM     26  O   LIG    1      -12.328   7.711   5.307  0.00  0.00    -0.320 OA
ATOM     27  C   LIG    1      -11.166   7.230   4.850  0.00  0.00    +0.640 C 
ATOM     28  O   LIG    1      -10.126   7.307   5.474  0.00  0.00    -0.500 OA
ENDBRANCH  20  23
ENDBRANCH   3  17
TORSDOF 3
