REMARK  Name = ZINCtV00000vwOqP.0
REMARK                            x       y       z     vdW  Elec       q    Type
REMARK                         _______ _______ _______ _____ _____    ______ ____
ROOT
ATOM      1  C   LIG    1       -0.756  -0.824   0.932  0.00  0.00    -0.190 A 
ATOM      2  C   LIG    1       -0.575  -2.166   0.726  0.00  0.00    +0.050 A 
ATOM      3  S   LIG    1        0.495  -2.445  -0.570  0.00  0.00    +0.330 S 
ATOM      4  C   LIG    1        0.716  -0.730  -0.866  0.00  0.00    -0.100 A 
ATOM      5  C   LIG    1        0.002  -0.004   0.002  0.00  0.00    -0.000 A 
ENDROOT
BRANCH   5   6
ATOM      6  C   LIG    1       -0.018   1.478   0.010  0.00  0.00    -0.040 A 
ATOM      7  C   LIG    1       -1.233   2.161   0.020  0.00  0.00    +0.020 A 
ATOM      8  C   LIG    1       -1.246   3.541   0.032  0.00  0.00    +0.000 A 
ATOM      9  C   LIG    1       -0.056   4.247   0.024  0.00  0.00    +0.010 A 
ATOM     10  C   LIG    1        1.153   3.574   0.010  0.00  0.00    +0.010 A 
ATOM     11  C   LIG    1        1.178   2.194   0.003  0.00  0.00    +0.030 A 
ENDBRANCH   5   6
BRANCH   2  12
ATOM     12  N   LIG    1       -1.180  -3.164   1.472  0.00  0.00    -0.630 N 
ATOM     13  H   LIG    1       -1.780  -2.930   2.197  0.00  0.00    +0.420 HD
ATOM     14  C   LIG    1       -0.936  -4.459   1.190  0.00  0.00    +0.580 C 
ATOM     15  O   LIG    1       -0.184  -4.752   0.280  0.00  0.00    -0.490 OA
BRANCH  14  16
ATOM     16  C   LIG    1       -1.580  -5.518   1.982  0.00  0.00    -0.150 A 
ATOM     17  C   LIG    1       -2.429  -5.266   3.009  0.00  0.00    -0.050 A 
ATOM     18  S   LIG    1       -2.988  -6.716   3.704  0.00  0.00    +0.220 S 
ATOM     19  C   LIG    1       -2.059  -7.703   2.588  0.00  0.00    -0.200 A 
ATOM     20  C   LIG    1       -2.036  -9.219   2.578  0.00  0.00    +0.120 C 
ATOM     21  C   LIG    1       -0.825  -9.687   1.766  0.00  0.00    -0.010 C 
ATOM     22  C   LIG    1       -0.919 -11.196   1.531  0.00  0.00    +0.030 C 
ATOM     23  C   LIG    1       -0.813  -8.957   0.420  0.00  0.00    +0.020 C 
ATOM     24  C   LIG    1       -0.463  -7.484   0.650  0.00  0.00    +0.110 C 
ATOM     25  C   LIG    1       -1.371  -6.931   1.736  0.00  0.00    -0.050 A 
ENDBRANCH  14  16
ENDBRANCH   2  12
BRANCH   1  26
ATOM     26  C   LIG    1       -1.621  -0.275   1.976  0.00  0.00    +0.540 C 
ATOM     27  O   LIG    1       -2.794  -0.055   1.741  0.00  0.00    -0.490 OA
BRANCH  26  28
ATOM     28  O   LIG    1       -1.118  -0.014   3.200  0.00  0.00    -0.340 OA
BRANCH  28  30
ATOM     29  C   LIG    1       -1.274   0.751   5.488  0.00  0.00    +0.070 C 
ATOM     30  C   LIG    1       -2.020   0.521   4.171  0.00  0.00    +0.200 C 
ENDBRANCH  28  30
ENDBRANCH  26  28
ENDBRANCH   1  26
TORSDOF 6
