REMARK  Name = ZINCvU0000000Gfw.0
REMARK                            x       y       z     vdW  Elec       q    Type
REMARK                         _______ _______ _______ _____ _____    ______ ____
ROOT
ATOM      1  N   LIG    1        2.411   5.263   0.160  0.00  0.00    -0.720 N 
ATOM      2  H   LIG    1        1.571   5.727   0.300  0.00  0.00    +0.400 HD
ATOM      3  C   LIG    1        2.421   3.928  -0.022  0.00  0.00    +0.560 C 
ATOM      4  O   LIG    1        3.474   3.346  -0.198  0.00  0.00    -0.530 OA
ENDROOT
BRANCH   3   5
ATOM      5  C   LIG    1        1.154   3.171  -0.008  0.00  0.00    -0.150 A 
ATOM      6  C   LIG    1        1.163   1.787  -0.196  0.00  0.00    +0.110 A 
ATOM      7  C   LIG    1       -0.021   1.084  -0.183  0.00  0.00    +0.010 A 
ATOM      8  C   LIG    1       -1.226   1.752   0.012  0.00  0.00    +0.170 A 
ATOM      9  C   LIG    1       -1.238   3.130   0.206  0.00  0.00    -0.010 A 
ATOM     10  C   LIG    1       -0.058   3.839   0.194  0.00  0.00    +0.070 A 
BRANCH   8  11
ATOM     11  N   LIG    1       -2.423   1.039   0.019  0.00  0.00    -0.670 N 
ATOM     12  H   LIG    1       -3.233   1.447  -0.326  0.00  0.00    +0.420 HD
ATOM     13  C   LIG    1       -2.456  -0.217   0.506  0.00  0.00    +0.610 C 
ATOM     14  O   LIG    1       -1.465  -0.694   1.026  0.00  0.00    -0.490 OA
BRANCH  13  15
ATOM     15  C   LIG    1       -3.686  -1.009   0.408  0.00  0.00    -0.090 A 
ATOM     16  C   LIG    1       -3.855  -2.288   0.858  0.00  0.00    +0.060 A 
ATOM     17  C   LIG    1       -5.178  -2.649   0.558  0.00  0.00    -0.070 A 
ATOM     18  C   LIG    1       -5.751  -1.589  -0.053  0.00  0.00    +0.220 A 
ATOM     19  O   LIG    1       -4.851  -0.601  -0.137  0.00  0.00    -0.170 OA
ENDBRANCH  13  15
ENDBRANCH   8  11
ENDBRANCH   3   5
BRANCH   1  20
ATOM     20  C   LIG    1        3.669   6.014   0.146  0.00  0.00    +0.340 C 
BRANCH  20  25
ATOM     21  C   LIG    1        3.042  10.882   3.196  0.00  0.00    +0.090 C 
ATOM     22  C   LIG    1        3.205   9.612   2.400  0.00  0.00    -0.080 A 
ATOM     23  C   LIG    1        4.378   8.886   2.491  0.00  0.00    +0.010 A 
ATOM     24  C   LIG    1        4.528   7.721   1.762  0.00  0.00    +0.030 A 
ATOM     25  C   LIG    1        3.505   7.283   0.942  0.00  0.00    -0.090 A 
ATOM     26  C   LIG    1        2.335   8.012   0.847  0.00  0.00    +0.010 A 
ATOM     27  C   LIG    1        2.183   9.174   1.581  0.00  0.00    +0.000 A 
ENDBRANCH  20  25
BRANCH  20  28
ATOM     28  C   LIG    1        4.034   6.355  -1.276  0.00  0.00    -0.090 A 
ATOM     29  C   LIG    1        3.052   6.741  -2.168  0.00  0.00    +0.020 A 
ATOM     30  C   LIG    1        3.387   7.059  -3.471  0.00  0.00    +0.000 A 
ATOM     31  C   LIG    1        4.705   6.982  -3.884  0.00  0.00    +0.000 A 
ATOM     32  C   LIG    1        5.686   6.591  -2.993  0.00  0.00    +0.000 A 
ATOM     33  C   LIG    1        5.351   6.278  -1.688  0.00  0.00    +0.020 A 
ENDBRANCH  20  28
ENDBRANCH   1  20
TORSDOF 6
