REMARK  Name = ZINCrH000004sQWJ.0
REMARK                            x       y       z     vdW  Elec       q    Type
REMARK                         _______ _______ _______ _____ _____    ______ ____
ROOT
ATOM      1  C   LIG    1       -2.689   1.373  -2.545  0.00  0.00    +0.600 C 
ATOM      2  N   LIG    1       -2.125   1.637  -1.350  0.00  0.00    -0.590 N 
ATOM      3  C   LIG    1       -2.954   1.961  -0.179  0.00  0.00    +0.300 C 
ATOM      4  C   LIG    1       -2.531   1.057   0.983  0.00  0.00    +0.170 C 
ATOM      5  N   LIG    1       -1.082   1.182   1.194  0.00  0.00    -0.540 NA
ATOM      6  C   LIG    1       -0.331   0.717   0.020  0.00  0.00    +0.180 C 
ATOM      7  C   LIG    1       -0.662   0.465   2.406  0.00  0.00    +0.200 C 
ATOM      8  C   LIG    1       -0.664   1.608  -1.181  0.00  0.00    +0.280 C 
ATOM      9  O   LIG    1       -1.999   0.996  -3.473  0.00  0.00    -0.500 OA
ENDROOT
BRANCH   1  12
ATOM     10  C   LIG    1       -4.322   0.586  -5.099  0.00  0.00    +0.210 C 
ATOM     11  C   LIG    1       -4.862   1.203  -3.835  0.00  0.00    +0.050 A 
ATOM     12  C   LIG    1       -4.142   1.542  -2.728  0.00  0.00    -0.070 A 
ATOM     13  N   LIG    1       -5.013   2.058  -1.824  0.00  0.00    -0.450 NA
ATOM     14  C   LIG    1       -6.212   2.047  -2.350  0.00  0.00    +0.240 A 
ATOM     15  O   LIG    1       -6.142   1.522  -3.586  0.00  0.00    -0.190 OA
BRANCH  14  16
ATOM     16  C   LIG    1       -7.444   2.528  -1.690  0.00  0.00    -0.020 A 
ATOM     17  C   LIG    1       -7.388   3.049  -0.397  0.00  0.00    +0.070 A 
ATOM     18  C   LIG    1       -8.541   3.501   0.212  0.00  0.00    +0.010 A 
ATOM     19  C   LIG    1       -9.752   3.428  -0.453  0.00  0.00    +0.030 A 
ATOM     20  C   LIG    1       -9.815   2.908  -1.733  0.00  0.00    +0.010 A 
ATOM     21  C   LIG    1       -8.669   2.458  -2.355  0.00  0.00    +0.040 A 
ENDBRANCH  14  16
ENDBRANCH   1  12
BRANCH   8  22
ATOM     22  C   LIG    1       -0.023   1.044  -2.423  0.00  0.00    -0.060 A 
ATOM     23  C   LIG    1       -0.242  -0.275  -2.776  0.00  0.00    +0.040 A 
ATOM     24  C   LIG    1        0.343  -0.790  -3.918  0.00  0.00    -0.010 A 
ATOM     25  C   LIG    1        1.155   0.009  -4.700  0.00  0.00    +0.000 A 
ATOM     26  C   LIG    1        1.379   1.326  -4.343  0.00  0.00    +0.000 A 
ATOM     27  C   LIG    1        0.790   1.843  -3.205  0.00  0.00    +0.000 A 
ENDBRANCH   8  22
TORSDOF 3
