REMARK  Name = ZINCpe00000FUpgG.0
REMARK                            x       y       z     vdW  Elec       q    Type
REMARK                         _______ _______ _______ _____ _____    ______ ____
ROOT
ATOM      1  O   LIG    1       -1.714   2.256   1.150  0.00  0.00    -0.530 OA
ATOM      2  C   LIG    1       -0.718   1.572   1.248  0.00  0.00    +0.500 C 
ATOM      3  N   LIG    1       -0.242   1.246   2.466  0.00  0.00    -0.610 N 
ATOM      4  C   LIG    1        0.961   0.413   2.601  0.00  0.00    +0.270 C 
ATOM      5  C   LIG    1        0.643  -0.778   3.504  0.00  0.00    +0.000 C 
ATOM      6  C   LIG    1        0.077  -0.270   4.832  0.00  0.00    +0.180 C 
ATOM      7  C   LIG    1       -1.219   0.503   4.575  0.00  0.00    +0.050 C 
ATOM      8  C   LIG    1       -0.918   1.712   3.684  0.00  0.00    +0.290 C 
ENDROOT
BRANCH   6   9
ATOM      9  C   LIG    1       -0.209  -1.442   5.736  0.00  0.00    -0.110 A 
ATOM     10  C   LIG    1       -1.452  -2.047   5.711  0.00  0.00    +0.010 A 
ATOM     11  C   LIG    1       -1.712  -3.125   6.537  0.00  0.00    +0.000 A 
ATOM     12  C   LIG    1       -0.734  -3.590   7.395  0.00  0.00    +0.000 A 
ATOM     13  C   LIG    1        0.507  -2.982   7.424  0.00  0.00    +0.000 A 
ATOM     14  C   LIG    1        0.769  -1.907   6.595  0.00  0.00    +0.010 A 
ENDBRANCH   6   9
BRANCH   6  15
ATOM     15  O   LIG    1        1.030   0.592   5.457  0.00  0.00    -0.550 OA
ATOM     16  H   LIG    1        1.877   0.167   5.650  0.00  0.00    +0.380 HD
ENDBRANCH   6  15
BRANCH   2  17
ATOM     17  C   LIG    1       -0.013   1.086   0.008  0.00  0.00    +0.310 C 
BRANCH  17  18
ATOM     18  N   LIG    1       -0.721   1.571  -1.179  0.00  0.00    -0.590 N 
ATOM     19  C   LIG    1       -0.352   2.866  -1.772  0.00  0.00    +0.280 C 
ATOM     20  C   LIG    1       -1.463   3.875  -1.478  0.00  0.00    +0.020 C 
ATOM     21  C   LIG    1       -2.552   3.805  -2.533  0.00  0.00    +0.010 C 
ATOM     22  C   LIG    1       -3.333   2.503  -2.522  0.00  0.00    +0.060 C 
ATOM     23  C   LIG    1       -2.440   1.331  -2.938  0.00  0.00    +0.180 C 
ATOM     24  C   LIG    1       -1.693   0.834  -1.718  0.00  0.00    +0.490 C 
ATOM     25  O   LIG    1       -1.983  -0.236  -1.227  0.00  0.00    -0.530 OA
BRANCH  23  26
ATOM     26  O   LIG    1       -3.246   0.280  -3.473  0.00  0.00    -0.540 OA
ATOM     27  H   LIG    1       -2.743  -0.495  -3.757  0.00  0.00    +0.380 HD
ENDBRANCH  23  26
ENDBRANCH  17  18
ENDBRANCH   2  17
TORSDOF 5
