REMARK  Name = ZINCpe000000WAbg.0
REMARK                            x       y       z     vdW  Elec       q    Type
REMARK                         _______ _______ _______ _____ _____    ______ ____
ROOT
ATOM      1  C   LIG    1       -4.605   2.907   3.679  0.00  0.00    -0.230 A 
ATOM      2  C   LIG    1       -3.754   3.096   4.773  0.00  0.00    +0.400 A 
ATOM      3  N   LIG    1       -2.464   2.852   4.687  0.00  0.00    -0.510 NA
ATOM      4  C   LIG    1       -1.910   2.418   3.566  0.00  0.00    +0.430 A 
ATOM      5  C   LIG    1       -2.701   2.202   2.419  0.00  0.00    -0.250 A 
ATOM      6  C   LIG    1       -2.042   1.723   1.191  0.00  0.00    +0.570 A 
ATOM      7  N   LIG    1       -0.709   1.504   1.227  0.00  0.00    -0.560 N 
ATOM      8  C   LIG    1       -0.001   1.725   2.345  0.00  0.00    +0.710 A 
ATOM      9  O   LIG    1        1.197   1.517   2.324  0.00  0.00    -0.520 OA
ATOM     10  C   LIG    1       -0.025   1.024   0.024  0.00  0.00    +0.360 C 
ATOM     11  O   LIG    1       -2.681   1.527   0.175  0.00  0.00    -0.480 OA
ATOM     12  N   LIG    1       -0.554   2.165   3.487  0.00  0.00    -0.530 N 
ATOM     13  C   LIG    1        0.290   2.381   4.664  0.00  0.00    +0.340 C 
ATOM     14  C   LIG    1       -4.068   2.448   2.469  0.00  0.00    +0.260 A 
ENDROOT
BRANCH   1  17
ATOM     15  N   LIG    1       -6.557   3.628   4.965  0.00  0.00    -0.660 N 
ATOM     16  H   LIG    1       -5.986   3.700   5.746  0.00  0.00    +0.410 HD
ATOM     17  C   LIG    1       -6.050   3.187   3.797  0.00  0.00    +0.570 C 
ATOM     18  O   LIG    1       -6.782   3.020   2.841  0.00  0.00    -0.510 OA
BRANCH  15  24
ATOM     19  C   LIG    1       -8.304   5.030   5.882  0.00  0.00    +0.110 A 
ATOM     20  C   LIG    1       -9.642   5.380   5.960  0.00  0.00    -0.060 A 
ATOM     21  C   LIG    1      -10.583   4.684   5.223  0.00  0.00    +0.040 A 
ATOM     22  C   LIG    1      -10.192   3.642   4.404  0.00  0.00    -0.010 A 
ATOM     23  C   LIG    1       -8.858   3.290   4.316  0.00  0.00    +0.070 A 
ATOM     24  C   LIG    1       -7.909   3.983   5.052  0.00  0.00    +0.110 A 
BRANCH  19  26
ATOM     25  C   LIG    1       -7.857   6.771   7.439  0.00  0.00    +0.250 C 
ATOM     26  O   LIG    1       -7.379   5.710   6.610  0.00  0.00    -0.320 OA
ENDBRANCH  19  26
ENDBRANCH  15  24
ENDBRANCH   1  17
TORSDOF 3
