REMARK  Name = ZINCrH00000tj154.0
REMARK                            x       y       z     vdW  Elec       q    Type
REMARK                         _______ _______ _______ _____ _____    ______ ____
ROOT
ATOM      1  N   LIG    1       -0.091   0.929  -0.126  0.00  0.00    -0.690 N 
ATOM      2  H   LIG    1       -0.042  -0.040  -0.107  0.00  0.00    +0.420 HD
ENDROOT
BRANCH   1   8
ATOM      3  C   LIG    1       -1.810   2.093  -1.373  0.00  0.00    -0.130 A 
ATOM      4  C   LIG    1       -3.058   2.721  -1.399  0.00  0.00    +0.180 A 
ATOM      5  C   LIG    1       -3.799   2.826  -0.242  0.00  0.00    -0.060 A 
ATOM      6  C   LIG    1       -3.317   2.306   0.949  0.00  0.00    +0.160 A 
ATOM      7  C   LIG    1       -2.089   1.677   0.990  0.00  0.00    +0.030 A 
ATOM      8  C   LIG    1       -1.326   1.561  -0.165  0.00  0.00    +0.260 A 
BRANCH   5   9
ATOM      9  N   LIG    1       -5.117   3.498  -0.271  0.00  0.00    +0.030 N 
ATOM     10  O   LIG    1       -5.544   3.957  -1.316  0.00  0.00    -0.150 OA
ATOM     11  O   LIG    1       -5.775   3.593   0.750  0.00  0.00    -0.150 OA
ENDBRANCH   5   9
BRANCH   3  12
ATOM     12  C   LIG    1       -1.009   1.983  -2.604  0.00  0.00    +0.510 C 
ATOM     13  O   LIG    1        0.018   1.334  -2.605  0.00  0.00    -0.470 OA
BRANCH  12  15
ATOM     14  C   LIG    1       -0.577   2.450  -4.905  0.00  0.00    +0.290 C 
ATOM     15  O   LIG    1       -1.416   2.602  -3.730  0.00  0.00    -0.350 OA
ENDBRANCH  12  15
ENDBRANCH   3  12
ENDBRANCH   1   8
BRANCH   1  16
ATOM     16  C   LIG    1        1.084   1.689  -0.119  0.00  0.00    +0.230 A 
ATOM     17  C   LIG    1        1.018   3.071  -0.237  0.00  0.00    -0.060 A 
ATOM     18  C   LIG    1        2.178   3.821  -0.224  0.00  0.00    +0.060 A 
ATOM     19  C   LIG    1        3.409   3.193  -0.105  0.00  0.00    +0.040 A 
ATOM     20  C   LIG    1        3.476   1.811   0.008  0.00  0.00    +0.070 A 
ATOM     21  C   LIG    1        2.317   1.061   0.001  0.00  0.00    -0.030 A 
BRANCH  19  22
ATOM     22  O   LIG    1        4.551   3.931  -0.098  0.00  0.00    -0.240 OA
BRANCH  22  23
ATOM     23  C   LIG    1        5.315   3.934  -1.219  0.00  0.00    +0.270 A 
ATOM     24  C   LIG    1        6.437   4.751  -1.295  0.00  0.00    +0.230 A 
ATOM     25  N   LIG    1        7.181   4.748  -2.386  0.00  0.00    -0.400 NA
ATOM     26  C   LIG    1        6.854   3.976  -3.408  0.00  0.00    +0.180 A 
ATOM     27  C   LIG    1        5.736   3.166  -3.337  0.00  0.00    +0.260 A 
ATOM     28  N   LIG    1        4.989   3.161  -2.246  0.00  0.00    -0.480 NA
ENDBRANCH  22  23
ENDBRANCH  19  22
ENDBRANCH   1  16
TORSDOF 7
