REMARK  Name = ZINCrD000000AjpI.0
REMARK                            x       y       z     vdW  Elec       q    Type
REMARK                         _______ _______ _______ _____ _____    ______ ____
ROOT
ATOM      1  O   LIG    1       -6.094  -1.814   0.043  0.00  0.00    -0.520 OA
ATOM      2  C   LIG    1       -6.123  -0.601   0.058  0.00  0.00    +0.520 C 
ATOM      3  N   LIG    1       -7.306   0.044   0.075  0.00  0.00    -0.670 N 
ATOM      4  H   LIG    1       -7.331   1.011   0.155  0.00  0.00    +0.420 HD
ENDROOT
BRANCH   3   5
ATOM      5  C   LIG    1       -8.501  -0.681  -0.022  0.00  0.00    +0.130 A 
ATOM      6  C   LIG    1       -9.587  -0.142  -0.700  0.00  0.00    +0.040 A 
ATOM      7  C   LIG    1      -10.762  -0.860  -0.801  0.00  0.00    -0.030 A 
ATOM      8  C   LIG    1      -10.863  -2.113  -0.216  0.00  0.00    +0.090 A 
ATOM      9  C   LIG    1       -9.780  -2.649   0.467  0.00  0.00    +0.040 A 
ATOM     10  C   LIG    1       -8.602  -1.935   0.564  0.00  0.00    +0.070 A 
BRANCH   8  11
ATOM     11  O   LIG    1      -12.023  -2.817  -0.310  0.00  0.00    -0.310 OA
BRANCH  11  12
ATOM     12  C   LIG    1      -13.096  -2.204  -1.027  0.00  0.00    +0.600 C 
ATOM     13  F   LIG    1      -13.439  -0.996  -0.411  0.00  0.00    -0.160 F 
ATOM     14  F   LIG    1      -14.204  -3.058  -1.027  0.00  0.00    -0.130 F 
ATOM     15  F   LIG    1      -12.697  -1.959  -2.345  0.00  0.00    -0.160 F 
ENDBRANCH  11  12
ENDBRANCH   8  11
ENDBRANCH   3   5
BRANCH   2  16
ATOM     16  C   LIG    1       -4.837   0.183   0.058  0.00  0.00    +0.100 C 
BRANCH  16  17
ATOM     17  C   LIG    1       -3.650  -0.782   0.037  0.00  0.00    +0.150 C 
BRANCH  17  18
ATOM     18  C   LIG    1       -2.364   0.003   0.037  0.00  0.00    +0.450 A 
ATOM     19  N   LIG    1       -2.434   1.304   0.054  0.00  0.00    -0.600 NA
ATOM     20  C   LIG    1       -1.329   2.074   0.060  0.00  0.00    +0.530 A 
ATOM     21  C   LIG    1       -0.017   1.403   0.037  0.00  0.00    -0.210 A 
ATOM     22  C   LIG    1        1.179   2.117   0.037  0.00  0.00    +0.110 A 
ATOM     23  C   LIG    1        2.376   1.434   0.020  0.00  0.00    -0.010 A 
ATOM     24  C   LIG    1        2.394   0.047   0.002  0.00  0.00    +0.080 A 
ATOM     25  C   LIG    1        1.218  -0.673   0.002  0.00  0.00    -0.020 A 
ATOM     26  C   LIG    1        0.002  -0.003   0.019  0.00  0.00    +0.170 A 
ATOM     27  O   LIG    1       -1.412   3.290   0.077  0.00  0.00    -0.480 OA
ATOM     28  N   LIG    1       -1.203  -0.676   0.020  0.00  0.00    -0.620 N 
ATOM     29  H   LIG    1       -1.213  -1.646   0.007  0.00  0.00    +0.420 HD
ENDBRANCH  17  18
ENDBRANCH  16  17
ENDBRANCH   2  16
TORSDOF 6
