REMARK  Name = ZINCrH000004mr1k.0
REMARK                            x       y       z     vdW  Elec       q    Type
REMARK                         _______ _______ _______ _____ _____    ______ ____
ROOT
ATOM      1  C   LIG    1       -2.504   1.002   0.019  0.00  0.00    +0.220 A 
ATOM      2  N   LIG    1       -3.709   1.513   0.027  0.00  0.00    -0.350 NA
ATOM      3  O   LIG    1       -4.537   0.627   0.025  0.00  0.00    +0.090 OA
ATOM      4  C   LIG    1       -3.933  -0.565   0.016  0.00  0.00    +0.180 A 
ATOM      5  N   LIG    1       -2.642  -0.344   0.006  0.00  0.00    -0.460 NA
ENDROOT
BRANCH   1  12
ATOM      6  C   LIG    1       -1.238   3.155   0.031  0.00  0.00    +0.180 A 
ATOM      7  C   LIG    1       -0.041   3.853   0.023  0.00  0.00    -0.060 A 
ATOM      8  C   LIG    1        1.159   3.168   0.008  0.00  0.00    +0.110 A 
ATOM      9  C   LIG    1        1.173   1.783   0.000  0.00  0.00    -0.140 A 
ATOM     10  C   LIG    1       -0.013   1.076   0.008  0.00  0.00    +0.140 A 
ATOM     11 BR   LIG    1        2.822   0.858  -0.020  0.00  0.00    -0.040 Br
ATOM     12  C   LIG    1       -1.228   1.757   0.017  0.00  0.00    -0.060 A 
BRANCH   6  14
ATOM     13  C   LIG    1       -2.352   5.255   0.052  0.00  0.00    +0.250 C 
ATOM     14  O   LIG    1       -2.418   3.827   0.045  0.00  0.00    -0.290 OA
ENDBRANCH   6  14
ENDBRANCH   1  12
BRANCH   4  15
ATOM     15  C   LIG    1       -4.609  -1.912   0.012  0.00  0.00    +0.220 C 
BRANCH  15  16
ATOM     16  C   LIG    1       -4.832  -2.376   1.452  0.00  0.00    +0.220 C 
BRANCH  16  17
ATOM     17  C   LIG    1       -5.509  -3.722   1.448  0.00  0.00    +0.180 A 
ATOM     18  N   LIG    1       -4.917  -4.891   1.438  0.00  0.00    -0.440 NA
ATOM     19  C   LIG    1       -5.914  -5.803   1.437  0.00  0.00    +0.220 A 
ATOM     20  N   LIG    1       -7.042  -5.143   1.446  0.00  0.00    -0.360 NA
ATOM     21  O   LIG    1       -6.826  -3.949   1.458  0.00  0.00    +0.090 OA
BRANCH  19  22
ATOM     22  C   LIG    1       -5.758  -7.280   1.428  0.00  0.00    +0.190 A 
ATOM     23  C   LIG    1       -6.887  -8.093   1.434  0.00  0.00    +0.010 A 
ATOM     24  C   LIG    1       -6.726  -9.469   1.421  0.00  0.00    +0.080 A 
ATOM     25  C   LIG    1       -5.439  -9.984   1.413  0.00  0.00    -0.010 A 
ATOM     26  C   LIG    1       -4.361  -9.117   1.413  0.00  0.00    +0.280 A 
ATOM     27  N   LIG    1       -4.543  -7.812   1.421  0.00  0.00    -0.450 NA
ENDBRANCH  19  22
ENDBRANCH  16  17
ENDBRANCH  15  16
ENDBRANCH   4  15
TORSDOF 6
