REMARK  Name = ZINCpe000000T6qd.0
REMARK                            x       y       z     vdW  Elec       q    Type
REMARK                         _______ _______ _______ _____ _____    ______ ____
ROOT
ATOM      1  N   LIG    1        6.962   5.186   1.266  0.00  0.00    -0.340 N 
ATOM      2  N   LIG    1        6.901   4.208   0.438  0.00  0.00    -0.220 NA
ATOM      3  C   LIG    1        5.880   3.391   0.382  0.00  0.00    +0.070 A 
ATOM      4  C   LIG    1        5.895   2.276  -0.632  0.00  0.00    +0.150 C 
ATOM      5  C   LIG    1        4.854   1.220  -0.257  0.00  0.00    +0.190 C 
ATOM      6  N   LIG    1        3.565   1.890  -0.022  0.00  0.00    -0.510 NA
ATOM      7  C   LIG    1        3.605   2.648   1.234  0.00  0.00    +0.270 C 
ATOM      8  C   LIG    1        4.797   3.563   1.253  0.00  0.00    -0.010 A 
ATOM      9  C   LIG    1        4.832   4.599   2.145  0.00  0.00    -0.040 A 
ATOM     10  C   LIG    1        5.967   5.437   2.138  0.00  0.00    +0.480 A 
ATOM     11  O   LIG    1        6.046   6.378   2.913  0.00  0.00    -0.540 OA
ENDROOT
BRANCH   1  13
ATOM     12  C   LIG    1        9.389   5.216   1.566  0.00  0.00    +0.050 C 
ATOM     13  C   LIG    1        8.144   6.052   1.262  0.00  0.00    +0.250 C 
ATOM     14  C   LIG    1        8.293   6.706  -0.113  0.00  0.00    +0.050 C 
ENDBRANCH   1  13
BRANCH   6  15
ATOM     15  C   LIG    1        2.462   0.920  -0.017  0.00  0.00    +0.190 C 
ATOM     16  C   LIG    1        2.567   0.035   1.227  0.00  0.00    +0.020 C 
BRANCH  15  17
ATOM     17  C   LIG    1        1.147   1.655   0.000  0.00  0.00    +0.520 C 
ATOM     18  N   LIG    1       -0.011   0.966   0.007  0.00  0.00    -0.730 N 
ATOM     19  H   LIG    1        0.002  -0.004   0.002  0.00  0.00    +0.400 HD
ATOM     20  O   LIG    1        1.130   2.868   0.007  0.00  0.00    -0.520 OA
BRANCH  18  21
ATOM     21  C   LIG    1       -1.290   1.681   0.017  0.00  0.00    +0.280 C 
BRANCH  21  22
ATOM     22  C   LIG    1       -2.439   0.671   0.017  0.00  0.00    +0.140 C 
ATOM     23  C   LIG    1       -3.789   1.414   0.028  0.00  0.00    +0.010 C 
ATOM     24  C   LIG    1       -4.505   0.917  -1.252  0.00  0.00    +0.000 C 
ATOM     25  C   LIG    1       -3.762  -0.411  -1.546  0.00  0.00    +0.210 C 
ATOM     26  O   LIG    1       -2.395  -0.119  -1.183  0.00  0.00    -0.370 OA
ENDBRANCH  21  22
ENDBRANCH  18  21
ENDBRANCH  15  17
ENDBRANCH   6  15
TORSDOF 5
