REMARK  Name = ZINCkj000018RAMh.0
REMARK                            x       y       z     vdW  Elec       q    Type
REMARK                         _______ _______ _______ _____ _____    ______ ____
ROOT
ATOM      1  C   LIG    1        1.158   3.176   0.008  0.00  0.00    -0.040 A 
ATOM      2  C   LIG    1       -0.049   3.846   0.023  0.00  0.00    +0.020 A 
ATOM      3  C   LIG    1       -1.237   3.135   0.030  0.00  0.00    +0.120 A 
ATOM      4  C   LIG    1       -1.218   1.751   0.017  0.00  0.00    +0.010 A 
ATOM      5  C   LIG    1       -0.013   1.076   0.008  0.00  0.00    +0.020 A 
ATOM      6  F   LIG    1       -2.417   3.793   0.045  0.00  0.00    -0.130 F 
ATOM      7  C   LIG    1        1.180   1.787   0.000  0.00  0.00    +0.070 A 
ENDROOT
BRANCH   7   8
ATOM      8  N   LIG    1        2.401   1.106  -0.015  0.00  0.00    -0.490 N 
ATOM      9  C   LIG    1        2.554   0.325  -1.250  0.00  0.00    +0.220 C 
ATOM     10  C   LIG    1        3.924  -0.356  -1.254  0.00  0.00    +0.280 C 
ATOM     11  N   LIG    1        4.038  -1.234  -0.082  0.00  0.00    -0.390 N 
ATOM     12  C   LIG    1        3.909  -0.436   1.144  0.00  0.00    +0.280 C 
ATOM     13  C   LIG    1        5.347  -1.901  -0.096  0.00  0.00    +0.320 C 
ATOM     14  H   LIG    1        3.307  -1.928  -0.110  0.00  0.00    +0.420 HD
ATOM     15  C   LIG    1        2.538   0.244   1.168  0.00  0.00    +0.230 C 
ENDBRANCH   7   8
BRANCH   1  16
ATOM     16  C   LIG    1        2.451   3.950  -0.001  0.00  0.00    +0.340 C 
BRANCH  16  18
ATOM     17  C   LIG    1        4.136   4.649  -1.616  0.00  0.00    +0.540 C 
ATOM     18  N   LIG    1        2.980   4.003  -1.366  0.00  0.00    -0.720 N 
ATOM     19  H   LIG    1        2.497   3.573  -2.090  0.00  0.00    +0.400 HD
ATOM     20  O   LIG    1        4.740   5.187  -0.709  0.00  0.00    -0.540 OA
BRANCH  17  22
ATOM     21  C   LIG    1        5.808   5.338  -3.235  0.00  0.00    +0.160 C 
ATOM     22  C   LIG    1        4.667   4.701  -2.987  0.00  0.00    -0.100 C 
ENDBRANCH  17  22
ENDBRANCH  16  18
ENDBRANCH   1  16
TORSDOF 4
