REMARK  Name = ZINCqH0000032EoZ.0
REMARK                            x       y       z     vdW  Elec       q    Type
REMARK                         _______ _______ _______ _____ _____    ______ ____
ROOT
ATOM      1  C   LIG    1       -2.802   3.601   0.035  0.00  0.00    +0.200 A 
ATOM      2  N   LIG    1       -1.504   3.425   0.033  0.00  0.00    -0.470 NA
ATOM      3  C   LIG    1       -1.319   2.085   0.020  0.00  0.00    +0.210 A 
ATOM      4  N   LIG    1       -2.505   1.532   0.023  0.00  0.00    -0.370 NA
ATOM      5  O   LIG    1       -3.364   2.388   0.031  0.00  0.00    +0.090 OA
ENDROOT
BRANCH   1   9
ATOM      6  C   LIG    1       -6.163   6.437  -2.304  0.00  0.00    +0.080 C 
ATOM      7  C   LIG    1       -5.345   6.231  -1.027  0.00  0.00    +0.120 C 
ATOM      8  C   LIG    1       -4.406   5.031  -1.203  0.00  0.00    +0.040 C 
ATOM      9  C   LIG    1       -3.526   4.923   0.045  0.00  0.00    +0.180 C 
ATOM     10  C   LIG    1       -4.383   5.015   1.281  0.00  0.00    -0.170 A 
ATOM     11  C   LIG    1       -3.863   4.578   2.487  0.00  0.00    +0.050 A 
ATOM     12  C   LIG    1       -4.620   4.652   3.641  0.00  0.00    -0.020 A 
ATOM     13  C   LIG    1       -5.903   5.164   3.594  0.00  0.00    +0.060 A 
ATOM     14  C   LIG    1       -6.428   5.600   2.394  0.00  0.00    -0.020 A 
ATOM     15  C   LIG    1       -5.669   5.526   1.230  0.00  0.00    +0.150 A 
ATOM     16  C   LIG    1       -4.526   7.489  -0.732  0.00  0.00    +0.040 C 
ATOM     17  O   LIG    1       -6.221   5.960   0.068  0.00  0.00    -0.300 OA
ENDBRANCH   1   9
BRANCH   3  18
ATOM     18  C   LIG    1       -0.017   1.375   0.010  0.00  0.00    +0.000 A 
ATOM     19  C   LIG    1        0.002  -0.004   0.002  0.00  0.00    +0.140 A 
ATOM     20  C   LIG    1        1.235  -0.675  -0.013  0.00  0.00    +0.020 A 
ATOM     21  N   LIG    1        1.640  -1.935  -0.023  0.00  0.00    -0.260 NA
ATOM     22  N   LIG    1        2.927  -1.959  -0.035  0.00  0.00    -0.190 N 
ATOM     23  H   LIG    1        3.449  -2.776  -0.045  0.00  0.00    +0.480 HD
ATOM     24  N   LIG    1        3.447  -0.781  -0.035  0.00  0.00    -0.270 NA
ATOM     25  C   LIG    1        2.475   0.117  -0.021  0.00  0.00    +0.040 A 
ATOM     26  C   LIG    1        2.390   1.521  -0.013  0.00  0.00    +0.090 A 
ATOM     27  C   LIG    1        1.175   2.122   0.002  0.00  0.00    +0.080 A 
ENDBRANCH   3  18
TORSDOF 2
