REMARK  Name = ZINCqH0000050HiZ.0
REMARK                            x       y       z     vdW  Elec       q    Type
REMARK                         _______ _______ _______ _____ _____    ______ ____
ROOT
ATOM      1  C   LIG    1       -2.022   1.061   1.321  0.00  0.00    +0.150 C 
ATOM      2  C   LIG    1       -2.868   1.569   0.148  0.00  0.00    +0.270 C 
ATOM      3  N   LIG    1       -2.176   1.229  -1.105  0.00  0.00    -0.620 N 
ATOM      4  C   LIG    1       -0.756   1.595  -1.232  0.00  0.00    +0.250 C 
ATOM      5  C   LIG    1       -0.013   1.086   0.008  0.00  0.00    +0.220 C 
ATOM      6  C   LIG    1       -2.823   0.601  -2.107  0.00  0.00    +0.520 C 
ATOM      7  O   LIG    1       -3.993   0.307  -1.983  0.00  0.00    -0.530 OA
ATOM      8  O   LIG    1       -0.684   1.548   1.183  0.00  0.00    -0.370 OA
ENDROOT
BRANCH   1   9
ATOM      9  C   LIG    1       -2.616   1.567   2.637  0.00  0.00    +0.360 C 
BRANCH   9  13
ATOM     10  C   LIG    1        0.059   1.091   6.849  0.00  0.00    +0.110 C 
ATOM     11  C   LIG    1       -0.714   0.772   5.595  0.00  0.00    -0.240 A 
ATOM     12  C   LIG    1       -1.280   1.671   4.757  0.00  0.00    +0.230 A 
ATOM     13  N   LIG    1       -1.879   0.986   3.761  0.00  0.00    -0.370 N 
ATOM     14  N   LIG    1       -1.667  -0.380   3.990  0.00  0.00    -0.300 NA
ATOM     15  C   LIG    1       -0.969  -0.507   5.089  0.00  0.00    +0.230 A 
ENDBRANCH   9  13
ENDBRANCH   1   9
BRANCH   6  16
ATOM     16  C   LIG    1       -2.092   0.264  -3.381  0.00  0.00    +0.060 C 
BRANCH  16  17
ATOM     17  C   LIG    1       -3.048  -0.440  -4.346  0.00  0.00    +0.050 C 
BRANCH  17  18
ATOM     18  C   LIG    1       -2.307  -0.782  -5.640  0.00  0.00    +0.080 C 
BRANCH  18  19
ATOM     19  C   LIG    1       -3.248  -1.475  -6.591  0.00  0.00    -0.060 A 
ATOM     20  C   LIG    1       -3.994  -0.733  -7.487  0.00  0.00    +0.040 A 
ATOM     21  C   LIG    1       -4.858  -1.368  -8.360  0.00  0.00    +0.040 A 
ATOM     22  C   LIG    1       -4.976  -2.745  -8.337  0.00  0.00    -0.040 A 
ATOM     23  C   LIG    1       -4.229  -3.489  -7.439  0.00  0.00    -0.030 A 
ATOM     24 CL   LIG    1       -4.376  -5.218  -7.409  0.00  0.00    -0.050 Cl
ATOM     25 CL   LIG    1       -6.062  -3.543  -9.433  0.00  0.00    -0.050 Cl
ATOM     26  C   LIG    1       -3.361  -2.853  -6.570  0.00  0.00    +0.040 A 
ENDBRANCH  18  19
ENDBRANCH  17  18
ENDBRANCH  16  17
ENDBRANCH   6  16
TORSDOF 6
