REMARK  Name = ZINCkj000005ipgo.0
REMARK                            x       y       z     vdW  Elec       q    Type
REMARK                         _______ _______ _______ _____ _____    ______ ____
ROOT
ATOM      1  C   LIG    1       -3.789  -1.687   1.774  0.00  0.00    +0.520 C 
ATOM      2  N   LIG    1       -2.749  -1.637   0.918  0.00  0.00    -0.610 N 
ATOM      3  C   LIG    1       -2.944  -1.977  -0.493  0.00  0.00    +0.280 C 
ATOM      4  O   LIG    1       -3.627  -1.406   2.942  0.00  0.00    -0.530 OA
ENDROOT
BRANCH   2   5
ATOM      5  C   LIG    1       -1.423  -1.243   1.400  0.00  0.00    +0.250 C 
ATOM      6  C   LIG    1       -0.941  -0.005   0.634  0.00  0.00    +0.010 C 
ATOM      7  C   LIG    1        0.321   0.521   1.312  0.00  0.00    +0.080 C 
ATOM      8  C   LIG    1        1.325  -0.587   1.498  0.00  0.00    -0.080 A 
ATOM      9  C   LIG    1        2.643  -0.230   1.747  0.00  0.00    +0.000 A 
ATOM     10  C   LIG    1        3.607  -1.199   1.940  0.00  0.00    +0.010 A 
ATOM     11  C   LIG    1        3.258  -2.535   1.885  0.00  0.00    +0.000 A 
ATOM     12  C   LIG    1        1.948  -2.891   1.635  0.00  0.00    +0.000 A 
ATOM     13  C   LIG    1        0.978  -1.918   1.438  0.00  0.00    -0.080 A 
ATOM     14  C   LIG    1       -0.429  -2.377   1.156  0.00  0.00    +0.080 C 
ENDBRANCH   2   5
BRANCH   1  15
ATOM     15  C   LIG    1       -5.153  -2.092   1.278  0.00  0.00    +0.100 C 
BRANCH  15  16
ATOM     16  C   LIG    1       -6.147  -2.067   2.441  0.00  0.00    +0.170 C 
BRANCH  16  18
ATOM     17  C   LIG    1       -6.395  -0.613   4.331  0.00  0.00    +0.210 C 
ATOM     18  O   LIG    1       -6.298  -0.725   2.909  0.00  0.00    -0.370 OA
ENDBRANCH  16  18
BRANCH  16  19
ATOM     19  C   LIG    1       -7.501  -2.597   1.966  0.00  0.00    +0.270 C 
BRANCH  19  20
ATOM     20  N   LIG    1       -8.417  -2.696   3.111  0.00  0.00    -0.640 N 
ATOM     21  H   LIG    1       -8.620  -1.771   3.460  0.00  0.00    +0.440 HD
ATOM     22  H   LIG    1       -7.986  -3.244   3.840  0.00  0.00    +0.430 HD
ATOM     23  H   LIG    1       -9.274  -3.140   2.819  0.00  0.00    +0.440 HD
ENDBRANCH  19  20
ENDBRANCH  16  19
ENDBRANCH  15  16
ENDBRANCH   1  15
TORSDOF 6
