REMARK  Name = ZINCtj00001UqOmB.0
REMARK                            x       y       z     vdW  Elec       q    Type
REMARK                         _______ _______ _______ _____ _____    ______ ____
ROOT
ATOM      1  N   LIG    1       -9.273  -0.311   2.460  0.00  0.00    -0.470 N 
ATOM      2  C   LIG    1       -8.225  -1.280   2.804  0.00  0.00    +0.240 C 
ATOM      3  C   LIG    1       -6.861  -0.587   2.791  0.00  0.00    +0.060 C 
ATOM      4  C   LIG    1       -6.604  -0.003   1.399  0.00  0.00    +0.160 C 
ATOM      5  C   LIG    1       -7.735   0.967   1.044  0.00  0.00    +0.070 C 
ATOM      6  C   LIG    1       -9.073   0.228   1.108  0.00  0.00    +0.240 C 
ENDROOT
BRANCH   1  10
ATOM      7  C   LIG    1      -12.992  -1.910   2.824  0.00  0.00    +0.020 A 
ATOM      8  C   LIG    1      -11.857  -2.670   3.105  0.00  0.00    +0.350 A 
ATOM      9  N   LIG    1      -10.657  -2.134   2.982  0.00  0.00    -0.480 NA
ATOM     10  C   LIG    1      -10.530  -0.872   2.589  0.00  0.00    +0.290 A 
ATOM     11  C   LIG    1      -11.669  -0.108   2.312  0.00  0.00    +0.230 A 
ATOM     12  N   LIG    1      -12.864  -0.643   2.429  0.00  0.00    -0.360 NA
BRANCH   7  13
ATOM     13  C   LIG    1      -14.335  -2.509   2.961  0.00  0.00    +0.530 C 
ATOM     14  O   LIG    1      -14.451  -3.664   3.320  0.00  0.00    -0.490 OA
BRANCH  13  16
ATOM     15  C   LIG    1      -16.718  -2.429   2.846  0.00  0.00    +0.280 C 
ATOM     16  O   LIG    1      -15.431  -1.775   2.689  0.00  0.00    -0.330 OA
ENDBRANCH  13  16
ENDBRANCH   7  13
ENDBRANCH   1  10
BRANCH   4  17
ATOM     17  N   LIG    1       -5.323   0.715   1.396  0.00  0.00    -0.510 N 
ATOM     18  H   LIG    1       -5.382   1.512   2.012  0.00  0.00    +0.430 HD
ATOM     19  H   LIG    1       -4.591   0.097   1.714  0.00  0.00    +0.430 HD
BRANCH  17  20
ATOM     20  C   LIG    1       -5.020   1.171   0.033  0.00  0.00    +0.350 C 
BRANCH  20  21
ATOM     21  C   LIG    1       -3.705   1.907   0.030  0.00  0.00    -0.160 A 
ATOM     22  C   LIG    1       -3.668   3.291   0.038  0.00  0.00    +0.090 A 
ATOM     23  C   LIG    1       -2.442   3.940   0.036  0.00  0.00    +0.300 A 
ATOM     24  N   LIG    1       -1.317   3.261   0.032  0.00  0.00    -0.380 NA
ATOM     25  C   LIG    1       -1.305   1.932   0.019  0.00  0.00    +0.080 A 
ATOM     26  C   LIG    1       -2.501   1.213   0.021  0.00  0.00    +0.130 A 
ATOM     27  F   LIG    1       -2.489  -0.138   0.012  0.00  0.00    -0.100 F 
BRANCH  25  28
ATOM     28  C   LIG    1       -0.014   1.210   0.009  0.00  0.00    +0.510 C 
ATOM     29  O   LIG    1        0.002  -0.004   0.002  0.00  0.00    -0.480 OA
BRANCH  28  30
ATOM     30  O   LIG    1        1.143   1.900   0.001  0.00  0.00    -0.330 OA
ATOM     31  C   LIG    1        2.371   1.125  -0.015  0.00  0.00    +0.280 C 
ENDBRANCH  28  30
ENDBRANCH  25  28
ENDBRANCH  20  21
ENDBRANCH  17  20
ENDBRANCH   4  17
TORSDOF 8
