REMARK  Name = ZINCvU00000008Il.0
REMARK                            x       y       z     vdW  Elec       q    Type
REMARK                         _______ _______ _______ _____ _____    ______ ____
ROOT
ATOM      1  N   LIG    1        1.703  -0.539   1.536  0.00  0.00    -0.360 N 
ATOM      2  N   LIG    1        1.537  -0.866   2.892  0.00  0.00    -0.290 NA
ATOM      3  C   LIG    1        0.254  -0.753   3.154  0.00  0.00    +0.260 A 
ATOM      4  N   LIG    1       -0.381  -0.371   2.038  0.00  0.00    -0.530 NA
ATOM      5  C   LIG    1        0.480  -0.237   1.063  0.00  0.00    +0.290 A 
ENDROOT
BRANCH   3   6
ATOM      6  C   LIG    1       -0.387  -1.008   4.469  0.00  0.00    -0.050 A 
ATOM      7  C   LIG    1        0.379  -1.402   5.564  0.00  0.00    +0.320 A 
ATOM      8  N   LIG    1       -0.188  -1.628   6.731  0.00  0.00    -0.470 NA
ATOM      9  C   LIG    1       -1.487  -1.493   6.913  0.00  0.00    +0.310 A 
ATOM     10  C   LIG    1       -2.315  -1.105   5.875  0.00  0.00    -0.150 A 
ATOM     11 BR   LIG    1       -4.176  -0.916   6.155  0.00  0.00    -0.020 Br
ATOM     12  C   LIG    1       -1.766  -0.850   4.629  0.00  0.00    +0.150 A 
ENDBRANCH   3   6
BRANCH   1  14
ATOM     13  C   LIG    1        3.537  -1.942   0.731  0.00  0.00    +0.050 C 
ATOM     14  C   LIG    1        2.961  -0.525   0.785  0.00  0.00    +0.270 C 
BRANCH  14  15
ATOM     15  C   LIG    1        3.959   0.405   1.478  0.00  0.00    -0.010 C 
ATOM     16  C   LIG    1        3.340   1.797   1.632  0.00  0.00    -0.010 C 
ATOM     17  C   LIG    1        4.372   2.740   2.254  0.00  0.00    +0.210 C 
ATOM     18  O   LIG    1        5.542   2.772   1.433  0.00  0.00    -0.380 OA
ATOM     19  C   LIG    1        6.190   1.507   1.292  0.00  0.00    +0.210 C 
ATOM     20  C   LIG    1        5.230   0.514   0.631  0.00  0.00    +0.010 C 
ENDBRANCH  14  15
ENDBRANCH   1  14
BRANCH   5  21
ATOM     21  C   LIG    1        0.158   0.178  -0.349  0.00  0.00    +0.160 C 
BRANCH  21  22
ATOM     22  C   LIG    1       -0.019  -1.068  -1.219  0.00  0.00    -0.010 C 
ATOM     23  C   LIG    1       -0.235  -0.652  -2.679  0.00  0.00    +0.030 C 
ATOM     24  C   LIG    1       -0.168  -1.904  -3.551  0.00  0.00    +0.080 C 
ATOM     25  C   LIG    1       -1.082  -2.974  -3.014  0.00  0.00    -0.080 A 
ATOM     26  C   LIG    1       -1.428  -4.016  -3.865  0.00  0.00    +0.000 A 
ATOM     27  C   LIG    1       -2.252  -5.032  -3.429  0.00  0.00    +0.000 A 
ATOM     28  C   LIG    1       -2.739  -5.014  -2.135  0.00  0.00    +0.000 A 
ATOM     29  C   LIG    1       -2.400  -3.978  -1.290  0.00  0.00    +0.000 A 
ATOM     30  C   LIG    1       -1.571  -2.953  -1.727  0.00  0.00    -0.070 A 
ATOM     31  C   LIG    1       -1.246  -1.851  -0.754  0.00  0.00    +0.080 C 
ENDBRANCH  21  22
ENDBRANCH   5  21
TORSDOF 5
