REMARK  Name = ZINCpe00000gN6ue.0
REMARK                            x       y       z     vdW  Elec       q    Type
REMARK                         _______ _______ _______ _____ _____    ______ ____
ROOT
ATOM      1  N   LIG    1        2.244   0.155   0.974  0.00  0.00    -0.470 N 
ATOM      2  C   LIG    1        0.930  -0.484   1.123  0.00  0.00    +0.210 C 
ATOM      3  C   LIG    1        0.002  -0.004   0.002  0.00  0.00    +0.310 C 
ATOM      4  N   LIG    1       -0.018   1.467   0.010  0.00  0.00    -1.000 NA
ATOM      5  C   LIG    1        1.268   2.180   0.002  0.00  0.00    +0.310 C 
ATOM      6  C   LIG    1        2.147   1.614   1.123  0.00  0.00    +0.190 C 
ENDROOT
BRANCH   1  11
ATOM      7  C   LIG    1        3.629  -1.865   3.579  0.00  0.00    +0.100 A 
ATOM      8  C   LIG    1        4.949  -1.431   3.644  0.00  0.00    +0.020 A 
ATOM      9  C   LIG    1        5.378  -0.430   2.784  0.00  0.00    +0.090 A 
ATOM     10  C   LIG    1        4.471   0.103   1.886  0.00  0.00    -0.020 A 
ATOM     11  C   LIG    1        3.161  -0.376   1.873  0.00  0.00    +0.310 A 
ATOM     12  N   LIG    1        2.782  -1.326   2.708  0.00  0.00    -0.500 NA
BRANCH   7  16
ATOM     13  N   LIG    1        1.883  -3.357   4.435  0.00  0.00    -0.840 N 
ATOM     14  H   LIG    1        1.577  -4.056   5.033  0.00  0.00    +0.410 HD
ATOM     15  H   LIG    1        1.270  -2.963   3.795  0.00  0.00    +0.410 HD
ATOM     16  C   LIG    1        3.161  -2.932   4.493  0.00  0.00    +0.580 C 
ATOM     17  O   LIG    1        3.929  -3.425   5.295  0.00  0.00    -0.530 OA
ENDBRANCH   7  16
ENDBRANCH   1  11
BRANCH   4  18
ATOM     18  S   LIG    1       -1.450   2.297   0.021  0.00  0.00    +2.600 S 
ATOM     19  O   LIG    1       -2.377   1.406  -0.584  0.00  0.00    -0.940 OA
ATOM     20  O   LIG    1       -1.136   3.546  -0.579  0.00  0.00    -0.940 OA
BRANCH  18  21
ATOM     21  C   LIG    1       -1.834   2.515   1.781  0.00  0.00    -0.300 C 
BRANCH  21  22
ATOM     22  C   LIG    1       -3.132   3.267   1.923  0.00  0.00    -0.100 A 
ATOM     23  C   LIG    1       -3.126   4.647   1.997  0.00  0.00    +0.020 A 
ATOM     24  C   LIG    1       -4.317   5.337   2.123  0.00  0.00    +0.010 A 
ATOM     25  C   LIG    1       -5.513   4.647   2.185  0.00  0.00    +0.020 A 
ATOM     26  C   LIG    1       -5.518   3.266   2.117  0.00  0.00    +0.010 A 
ATOM     27  C   LIG    1       -4.328   2.576   1.986  0.00  0.00    +0.020 A 
ENDBRANCH  21  22
ENDBRANCH  18  21
ENDBRANCH   4  18
TORSDOF 5
