REMARK  Name = ZINCqH000000665s.0
REMARK                            x       y       z     vdW  Elec       q    Type
REMARK                         _______ _______ _______ _____ _____    ______ ____
ROOT
ATOM      1  C   LIG    1       -0.806  -4.304  -1.315  0.00  0.00    -0.130 A 
ATOM      2  C   LIG    1       -2.127  -3.937  -1.491  0.00  0.00    +0.060 A 
ATOM      3  C   LIG    1       -2.441  -2.649  -1.879  0.00  0.00    -0.010 A 
ATOM      4  C   LIG    1       -1.429  -1.724  -2.092  0.00  0.00    +0.130 A 
ATOM      5  C   LIG    1       -0.104  -2.097  -1.920  0.00  0.00    -0.070 A 
ATOM      6  C   LIG    1        0.204  -3.385  -1.527  0.00  0.00    +0.050 A 
ENDROOT
BRANCH   1   7
ATOM      7  C   LIG    1       -0.467  -5.710  -0.891  0.00  0.00    +0.290 C 
ATOM      8  C   LIG    1       -0.035  -6.522  -2.114  0.00  0.00    +0.040 C 
BRANCH   7  10
ATOM      9  C   LIG    1        0.776  -6.684   0.965  0.00  0.00    +0.520 C 
ATOM     10  N   LIG    1        0.627  -5.676   0.083  0.00  0.00    -0.730 N 
ATOM     11  H   LIG    1        1.245  -4.928   0.093  0.00  0.00    +0.400 HD
ATOM     12  O   LIG    1        0.004  -7.620   0.953  0.00  0.00    -0.520 OA
BRANCH   9  13
ATOM     13  C   LIG    1        1.902  -6.649   1.967  0.00  0.00    +0.040 C 
BRANCH  13  14
ATOM     14  C   LIG    1        1.779  -7.845   2.914  0.00  0.00    +0.110 C 
ATOM     15  C   LIG    1        3.090  -8.194   3.638  0.00  0.00    -0.010 C 
ATOM     16  C   LIG    1        2.727  -9.672   3.416  0.00  0.00    +0.010 C 
ATOM     17  C   LIG    1        1.899  -9.205   2.207  0.00  0.00    +0.060 C 
BRANCH  14  19
ATOM     18  C   LIG    1        0.723  -6.666   4.714  0.00  0.00    +0.190 C 
ATOM     19  O   LIG    1        0.650  -7.749   3.784  0.00  0.00    -0.350 OA
ENDBRANCH  14  19
ENDBRANCH  13  14
ENDBRANCH   9  13
ENDBRANCH   7  10
ENDBRANCH   1   7
BRANCH   4  20
ATOM     20  O   LIG    1       -1.735  -0.456  -2.474  0.00  0.00    -0.310 OA
BRANCH  20  21
ATOM     21  C   LIG    1       -0.642   0.443  -2.675  0.00  0.00    +0.260 C 
BRANCH  21  22
ATOM     22  C   LIG    1       -1.171   1.791  -3.093  0.00  0.00    -0.150 A 
ATOM     23  C   LIG    1       -1.351   2.090  -4.434  0.00  0.00    +0.090 A 
ATOM     24  C   LIG    1       -1.845   3.341  -4.771  0.00  0.00    -0.030 A 
ATOM     25  C   LIG    1       -2.128   4.246  -3.766  0.00  0.00    +0.270 A 
ATOM     26  N   LIG    1       -1.940   3.929  -2.500  0.00  0.00    -0.490 NA
ATOM     27  C   LIG    1       -1.477   2.747  -2.143  0.00  0.00    +0.290 A 
ENDBRANCH  21  22
ENDBRANCH  20  21
ENDBRANCH   4  20
TORSDOF 8
