REMARK  Name = ZINCqH0000007nJ6.1
REMARK                            x       y       z     vdW  Elec       q    Type
REMARK                         _______ _______ _______ _____ _____    ______ ____
ROOT
ATOM      1  C   LIG    1       -5.312   2.686   0.089  0.00  0.00    +0.540 C 
ATOM      2  N   LIG    1       -6.248   2.122  -0.700  0.00  0.00    -0.720 N 
ATOM      3  H   LIG    1       -6.068   1.274  -1.135  0.00  0.00    +0.410 HD
ATOM      4  O   LIG    1       -5.537   3.746   0.634  0.00  0.00    -0.520 OA
ENDROOT
BRANCH   1   5
ATOM      5  C   LIG    1       -3.986   2.000   0.294  0.00  0.00    +0.000 C 
ATOM      6  C   LIG    1       -4.141   0.891   1.337  0.00  0.00    +0.070 C 
BRANCH   5   7
ATOM      7  S   LIG    1       -2.763   3.208   0.874  0.00  0.00    -0.070 S 
BRANCH   7  11
ATOM      8  C   LIG    1        1.113   0.864   0.773  0.00  0.00    +0.160 A 
ATOM      9  C   LIG    1        0.648   1.485  -0.378  0.00  0.00    -0.020 A 
ATOM     10  C   LIG    1       -0.530   2.204  -0.346  0.00  0.00    +0.110 A 
ATOM     11  C   LIG    1       -1.256   2.297   0.835  0.00  0.00    -0.170 A 
ATOM     12  C   LIG    1       -0.789   1.675   1.986  0.00  0.00    +0.110 A 
ATOM     13  C   LIG    1        0.392   0.961   1.954  0.00  0.00    -0.090 A 
BRANCH   8  15
ATOM     14  C   LIG    1        2.696  -0.453   1.963  0.00  0.00    +0.240 C 
ATOM     15  O   LIG    1        2.276   0.161   0.742  0.00  0.00    -0.310 OA
ENDBRANCH   8  15
ENDBRANCH   7  11
ENDBRANCH   5   7
ENDBRANCH   1   5
BRANCH   2  16
ATOM     16  C   LIG    1       -7.537   2.789  -0.899  0.00  0.00    +0.280 C 
BRANCH  16  17
ATOM     17  C   LIG    1       -8.362   2.007  -1.923  0.00  0.00    +0.210 C 
BRANCH  17  18
ATOM     18  C   LIG    1       -9.717   2.649  -2.071  0.00  0.00    -0.080 A 
ATOM     19  C   LIG    1      -10.505   2.866  -0.956  0.00  0.00    +0.000 A 
ATOM     20  C   LIG    1      -11.747   3.460  -1.091  0.00  0.00    +0.050 A 
ATOM     21  C   LIG    1      -12.206   3.828  -2.341  0.00  0.00    -0.010 A 
ATOM     22  C   LIG    1      -11.420   3.606  -3.459  0.00  0.00    +0.100 A 
ATOM     23  F   LIG    1      -11.867   3.966  -4.682  0.00  0.00    -0.140 F 
ATOM     24  C   LIG    1      -10.175   3.017  -3.323  0.00  0.00    +0.000 A 
ENDBRANCH  17  18
BRANCH  17  25
ATOM     25  N   LIG    1       -8.525   0.621  -1.465  0.00  0.00    -0.530 NA
ATOM     26  C   LIG    1       -9.700  -0.005  -2.086  0.00  0.00    +0.200 C 
ATOM     27  C   LIG    1       -8.608   0.557   0.001  0.00  0.00    +0.180 C 
ENDBRANCH  17  25
ENDBRANCH  16  17
ENDBRANCH   2  16
TORSDOF 8
