REMARK  Name = ZINCrD000000C2Jb.0
REMARK                            x       y       z     vdW  Elec       q    Type
REMARK                         _______ _______ _______ _____ _____    ______ ____
ROOT
ATOM      1  C   LIG    1       -0.940   9.488  -0.742  0.00  0.00    +0.200 A 
ATOM      2  C   LIG    1        0.279  10.152  -0.720  0.00  0.00    -0.020 A 
ATOM      3  C   LIG    1        0.327  11.512  -0.958  0.00  0.00    +0.140 A 
ATOM      4  C   LIG    1       -0.839  12.213  -1.206  0.00  0.00    -0.690 A 
ATOM      5  C   LIG    1       -2.055  11.555  -1.223  0.00  0.00    +0.140 A 
ATOM      6  C   LIG    1       -2.109  10.195  -0.991  0.00  0.00    +0.010 A 
ENDROOT
BRANCH   1   9
ATOM      7  O   LIG    1       -2.719   7.870  -1.883  0.00  0.00    -0.510 OA
ATOM      8  C   LIG    1       -1.894   7.348  -1.157  0.00  0.00    +0.610 C 
ATOM      9  N   LIG    1       -0.992   8.110  -0.507  0.00  0.00    -0.660 N 
ATOM     10  H   LIG    1       -0.377   7.702   0.124  0.00  0.00    +0.420 HD
BRANCH   8  11
ATOM     11  C   LIG    1       -1.882   5.884  -0.987  0.00  0.00    -0.080 A 
ATOM     12  C   LIG    1       -2.726   4.995  -1.577  0.00  0.00    +0.260 A 
ATOM     13  O   LIG    1       -2.363   3.772  -1.157  0.00  0.00    -0.190 OA
ATOM     14  C   LIG    1       -1.324   3.908  -0.320  0.00  0.00    +0.230 A 
ATOM     15  N   LIG    1       -1.023   5.168  -0.212  0.00  0.00    -0.460 NA
BRANCH  14  16
ATOM     16  C   LIG    1       -0.614   2.778   0.380  0.00  0.00    +0.090 C 
ATOM     17  C   LIG    1       -1.527   1.956   1.305  0.00  0.00    +0.040 C 
ATOM     18  C   LIG    1       -1.839   1.075   0.084  0.00  0.00    +0.020 C 
ATOM     19  C   LIG    1       -0.477   1.510  -0.483  0.00  0.00    +0.040 C 
ENDBRANCH  14  16
ENDBRANCH   8  11
ENDBRANCH   1   9
BRANCH   4  20
ATOM     20  S   LIG    1       -0.775  13.949  -1.501  0.00  0.00    +2.690 S 
ATOM     21  O   LIG    1       -1.944  14.274  -2.240  0.00  0.00    -0.950 OA
ATOM     22  O   LIG    1        0.539  14.229  -1.963  0.00  0.00    -0.950 OA
BRANCH  20  23
ATOM     23  N   LIG    1       -0.925  14.702  -0.034  0.00  0.00    -1.000 NA
ATOM     24  C   LIG    1       -2.249  15.070   0.487  0.00  0.00    +0.290 C 
ATOM     25  C   LIG    1       -2.402  14.477   1.895  0.00  0.00    +0.010 C 
ATOM     26  C   LIG    1       -1.234  14.939   2.768  0.00  0.00    +0.010 C 
ATOM     27  C   LIG    1        0.082  14.431   2.173  0.00  0.00    +0.010 C 
ATOM     28  C   LIG    1        0.263  15.020   0.770  0.00  0.00    +0.290 C 
ENDBRANCH  20  23
ENDBRANCH   4  20
TORSDOF 5
