REMARK  Name = ZINCrg00000SjSGA.0
REMARK                            x       y       z     vdW  Elec       q    Type
REMARK                         _______ _______ _______ _____ _____    ______ ____
ROOT
ATOM      1  N   LIG    1        2.213  -3.529  -1.707  0.00  0.00    -0.580 N 
ATOM      2  H   LIG    1        2.569  -4.069  -0.983  0.00  0.00    +0.390 HD
ATOM      3  C   LIG    1        1.629  -2.344  -1.439  0.00  0.00    +0.520 C 
ATOM      4  O   LIG    1        1.185  -1.669  -2.344  0.00  0.00    -0.480 OA
ENDROOT
BRANCH   1  11
ATOM      5  C   LIG    1        3.208  -9.040  -4.068  0.00  0.00    +0.650 C 
ATOM      6  N   LIG    1        2.638  -7.845  -3.815  0.00  0.00    -0.600 N 
ATOM      7  C   LIG    1        2.296  -6.936  -4.917  0.00  0.00    +0.320 C 
ATOM      8  C   LIG    1        3.018  -5.601  -4.698  0.00  0.00    +0.130 C 
ATOM      9  C   LIG    1        2.768  -5.149  -3.276  0.00  0.00    +0.110 C 
ATOM     10  C   LIG    1        3.083  -6.111  -2.150  0.00  0.00    +0.040 C 
ATOM     11  N   LIG    1        2.308  -3.981  -3.030  0.00  0.00    -0.230 NA
ATOM     12  C   LIG    1        2.354  -7.436  -2.433  0.00  0.00    +0.310 C 
ATOM     13  O   LIG    1        3.440  -9.370  -5.214  0.00  0.00    -0.570 OA
BRANCH   5  14
ATOM     14  O   LIG    1        3.519  -9.866  -3.052  0.00  0.00    -0.370 OA
BRANCH  14  16
ATOM     15  C   LIG    1        4.409 -11.934  -2.124  0.00  0.00    +0.070 C 
ATOM     16  C   LIG    1        4.130 -11.137  -3.400  0.00  0.00    +0.220 C 
ENDBRANCH  14  16
ENDBRANCH   5  14
ENDBRANCH   1  11
BRANCH   3  17
ATOM     17  C   LIG    1        1.528  -1.858  -0.016  0.00  0.00    +0.420 C 
BRANCH  17  18
ATOM     18  N   LIG    1        0.857  -0.556   0.009  0.00  0.00    -0.130 N 
ATOM     19  N   LIG    1       -0.412  -0.374   0.119  0.00  0.00    -0.040 NA
ATOM     20  N   LIG    1       -0.656   0.892   0.106  0.00  0.00    -0.270 NA
ATOM     21  C   LIG    1        0.520   1.523  -0.019  0.00  0.00    +0.220 A 
ATOM     22  N   LIG    1        1.446   0.587  -0.077  0.00  0.00    -0.290 NA
BRANCH  21  23
ATOM     23  C   LIG    1        0.737   2.991  -0.080  0.00  0.00    -0.020 A 
ATOM     24  C   LIG    1        2.027   3.502  -0.207  0.00  0.00    +0.050 A 
ATOM     25  C   LIG    1        2.222   4.867  -0.268  0.00  0.00    +0.010 A 
ATOM     26  C   LIG    1        1.142   5.727  -0.194  0.00  0.00    +0.030 A 
ATOM     27  C   LIG    1       -0.140   5.225  -0.062  0.00  0.00    +0.010 A 
ATOM     28  C   LIG    1       -0.348   3.861  -0.005  0.00  0.00    +0.060 A 
ENDBRANCH  21  23
ENDBRANCH  17  18
ENDBRANCH   3  17
TORSDOF 6
