REMARK  Name = ZINCvU0000000HJ4.0
REMARK                            x       y       z     vdW  Elec       q    Type
REMARK                         _______ _______ _______ _____ _____    ______ ____
ROOT
ATOM      1  N   LIG    1       -3.669   1.986  -0.449  0.00  0.00    -0.600 N 
ATOM      2  C   LIG    1       -2.345   1.995  -0.705  0.00  0.00    +0.580 C 
ATOM      3  O   LIG    1       -1.758   3.052  -0.830  0.00  0.00    -0.490 OA
ENDROOT
BRANCH   2   4
ATOM      4  C   LIG    1       -1.610   0.721  -0.834  0.00  0.00    -0.260 A 
ATOM      5  C   LIG    1       -0.387   0.663  -1.516  0.00  0.00    +0.380 A 
ATOM      6  N   LIG    1        0.242  -0.493  -1.604  0.00  0.00    -0.520 NA
ATOM      7  C   LIG    1       -0.271  -1.591  -1.063  0.00  0.00    +0.380 A 
ATOM      8  N   LIG    1       -1.428  -1.578  -0.413  0.00  0.00    -0.520 NA
ATOM      9  C   LIG    1       -2.118  -0.462  -0.281  0.00  0.00    +0.370 A 
BRANCH   7  10
ATOM     10  C   LIG    1        0.470  -2.869  -1.187  0.00  0.00    -0.050 A 
ATOM     11  C   LIG    1        1.686  -2.909  -1.870  0.00  0.00    +0.070 A 
ATOM     12  C   LIG    1        2.374  -4.100  -1.978  0.00  0.00    +0.000 A 
ATOM     13  C   LIG    1        1.855  -5.255  -1.419  0.00  0.00    +0.030 A 
ATOM     14  C   LIG    1        0.647  -5.222  -0.746  0.00  0.00    +0.000 A 
ATOM     15  C   LIG    1       -0.048  -4.036  -0.626  0.00  0.00    +0.070 A 
ENDBRANCH   7  10
ENDBRANCH   2   4
BRANCH   1  17
ATOM     16  C   LIG    1       -5.853   0.966  -0.039  0.00  0.00    +0.060 C 
ATOM     17  C   LIG    1       -4.345   0.726  -0.131  0.00  0.00    +0.260 C 
BRANCH  17  18
ATOM     18  C   LIG    1       -4.061  -0.283  -1.214  0.00  0.00    -0.120 A 
ATOM     19  C   LIG    1       -3.734   0.143  -2.487  0.00  0.00    +0.020 A 
ATOM     20  C   LIG    1       -3.470  -0.783  -3.479  0.00  0.00    +0.000 A 
ATOM     21  C   LIG    1       -3.542  -2.135  -3.200  0.00  0.00    +0.010 A 
ATOM     22  C   LIG    1       -3.875  -2.561  -1.928  0.00  0.00    +0.030 A 
ATOM     23  C   LIG    1       -4.135  -1.635  -0.935  0.00  0.00    +0.030 A 
ENDBRANCH  17  18
ENDBRANCH   1  17
BRANCH   1  24
ATOM     24  C   LIG    1       -4.431   3.237  -0.489  0.00  0.00    +0.350 C 
BRANCH  24  25
ATOM     25  C   LIG    1       -4.578   3.780   0.908  0.00  0.00    -0.140 A 
ATOM     26  C   LIG    1       -5.793   3.695   1.559  0.00  0.00    +0.030 A 
ATOM     27  C   LIG    1       -5.928   4.194   2.842  0.00  0.00    +0.000 A 
ATOM     28  C   LIG    1       -4.848   4.779   3.476  0.00  0.00    +0.030 A 
ATOM     29  C   LIG    1       -3.630   4.867   2.829  0.00  0.00    -0.020 A 
ATOM     30  C   LIG    1       -3.490   4.362   1.545  0.00  0.00    +0.130 A 
BRANCH  30  31
ATOM     31  O   LIG    1       -2.292   4.442   0.909  0.00  0.00    -0.470 OA
ATOM     32  H   LIG    1       -2.141   5.284   0.459  0.00  0.00    +0.390 HD
ENDBRANCH  30  31
ENDBRANCH  24  25
ENDBRANCH   1  24
TORSDOF 7
