REMARK  Name = ZINCrH000004sC4I.0
REMARK                            x       y       z     vdW  Elec       q    Type
REMARK                         _______ _______ _______ _____ _____    ______ ____
ROOT
ATOM      1  N   LIG    1       -4.308  -3.942   0.040  0.00  0.00    -0.710 N 
ATOM      2  H   LIG    1       -3.961  -4.848   0.030  0.00  0.00    +0.410 HD
ATOM      3  C   LIG    1       -3.459  -2.895   0.033  0.00  0.00    +0.600 C 
ATOM      4  O   LIG    1       -3.894  -1.759   0.045  0.00  0.00    -0.510 OA
ENDROOT
BRANCH   1  14
ATOM      5  C   LIG    1       -7.491  -2.769  -5.267  0.00  0.00    +0.180 C 
ATOM      6  C   LIG    1       -7.038  -3.028  -3.853  0.00  0.00    +0.320 A 
ATOM      7  N   LIG    1       -5.917  -2.481  -3.427  0.00  0.00    -0.520 NA
ATOM      8  C   LIG    1       -5.494  -2.687  -2.192  0.00  0.00    +0.340 A 
ATOM      9  C   LIG    1       -6.245  -3.494  -1.341  0.00  0.00    -0.220 A 
ATOM     10  C   LIG    1       -7.410  -4.047  -1.822  0.00  0.00    +0.190 A 
ATOM     11  C   LIG    1       -8.290  -4.934  -0.984  0.00  0.00    +0.110 C 
ATOM     12  C   LIG    1       -7.963  -4.762   0.499  0.00  0.00    +0.040 C 
ATOM     13  C   LIG    1       -6.449  -4.921   0.686  0.00  0.00    +0.040 C 
ATOM     14  C   LIG    1       -5.755  -3.711   0.063  0.00  0.00    +0.310 C 
ATOM     15  N   LIG    1       -7.773  -3.794  -3.075  0.00  0.00    -0.520 NA
ENDBRANCH   1  14
BRANCH   3  16
ATOM     16  C   LIG    1       -2.011  -3.126   0.010  0.00  0.00    -0.080 A 
ATOM     17  C   LIG    1       -1.044  -2.161   0.000  0.00  0.00    -0.080 A 
ATOM     18  C   LIG    1        0.191  -2.828  -0.015  0.00  0.00    -0.040 A 
ATOM     19  C   LIG    1       -0.072  -4.153  -0.019  0.00  0.00    +0.220 A 
ATOM     20  O   LIG    1       -1.400  -4.329  -0.008  0.00  0.00    -0.160 OA
BRANCH  17  21
ATOM     21  C   LIG    1       -1.262  -0.670   0.011  0.00  0.00    +0.310 C 
BRANCH  21  22
ATOM     22  O   LIG    1        0.002  -0.004   0.002  0.00  0.00    -0.310 OA
BRANCH  22  23
ATOM     23  C   LIG    1       -0.016   1.355   0.009  0.00  0.00    +0.130 A 
ATOM     24  C   LIG    1       -1.226   2.033   0.019  0.00  0.00    -0.080 A 
ATOM     25  C   LIG    1       -1.242   3.414   0.031  0.00  0.00    +0.050 A 
ATOM     26  C   LIG    1       -0.054   4.121   0.024  0.00  0.00    -0.040 A 
ATOM     27  C   LIG    1        1.153   3.447   0.009  0.00  0.00    +0.050 A 
ATOM     28  C   LIG    1        1.175   2.066   0.002  0.00  0.00    -0.020 A 
ENDBRANCH  22  23
ENDBRANCH  21  22
ENDBRANCH  17  21
ENDBRANCH   3  16
TORSDOF 5
