REMARK  Name = ZINCpk00000eblm1.0
REMARK                            x       y       z     vdW  Elec       q    Type
REMARK                         _______ _______ _______ _____ _____    ______ ____
ROOT
ATOM      1  C   LIG    1        4.821   4.159  -0.021  0.00  0.00    +0.520 C 
ATOM      2  N   LIG    1        4.972   5.498  -0.015  0.00  0.00    -0.720 N 
ATOM      3  H   LIG    1        4.191   6.074  -0.004  0.00  0.00    +0.410 HD
ATOM      4  O   LIG    1        5.797   3.439  -0.033  0.00  0.00    -0.500 OA
ENDROOT
BRANCH   1   5
ATOM      5  C   LIG    1        3.440   3.556  -0.011  0.00  0.00    +0.240 C 
BRANCH   5   6
ATOM      6  O   LIG    1        3.542   2.131  -0.020  0.00  0.00    -0.280 OA
BRANCH   6  12
ATOM      7  C   LIG    1        2.404   0.027  -0.021  0.00  0.00    -0.050 A 
ATOM      8  C   LIG    1        1.202  -0.683  -0.013  0.00  0.00    +0.110 A 
ATOM      9  C   LIG    1        0.002  -0.004   0.002  0.00  0.00    -0.010 A 
ATOM     10  C   LIG    1       -0.017   1.381   0.010  0.00  0.00    +0.090 A 
ATOM     11  C   LIG    1        1.165   2.096   0.002  0.00  0.00    -0.070 A 
ATOM     12  C   LIG    1        2.381   1.429  -0.013  0.00  0.00    +0.170 A 
BRANCH   7  14
ATOM     13  N   LIG    1        4.645  -1.226  -0.050  0.00  0.00    -0.410 NA
ATOM     14  C   LIG    1        3.654  -0.672  -0.037  0.00  0.00    +0.250 C 
ENDBRANCH   7  14
ENDBRANCH   6  12
ENDBRANCH   5   6
ENDBRANCH   1   5
BRANCH   2  15
ATOM     15  C   LIG    1        6.314   6.084  -0.024  0.00  0.00    +0.410 C 
BRANCH  15  16
ATOM     16  C   LIG    1        6.206   7.587  -0.015  0.00  0.00    +0.270 A 
ATOM     17  N   LIG    1        6.055   8.350  -1.065  0.00  0.00    -0.510 NA
ATOM     18  C   LIG    1        5.993   9.634  -0.688  0.00  0.00    +0.280 A 
ATOM     19  N   LIG    1        6.115   9.695   0.620  0.00  0.00    -0.290 NA
ATOM     20  N   LIG    1        6.254   8.374   1.075  0.00  0.00    -0.460 N 
ATOM     21  H   LIG    1        6.364   8.086   1.995  0.00  0.00    +0.450 HD
BRANCH  18  22
ATOM     22  C   LIG    1        5.821  10.795  -1.596  0.00  0.00    -0.070 A 
ATOM     23  C   LIG    1        5.777  12.095  -1.085  0.00  0.00    +0.100 A 
ATOM     24  C   LIG    1        5.615  13.145  -1.974  0.00  0.00    -0.040 A 
ATOM     25  C   LIG    1        5.504  12.875  -3.326  0.00  0.00    +0.280 A 
ATOM     26  N   LIG    1        5.550  11.637  -3.778  0.00  0.00    -0.480 NA
ATOM     27  C   LIG    1        5.707  10.607  -2.971  0.00  0.00    +0.320 A 
ENDBRANCH  18  22
ENDBRANCH  15  16
ENDBRANCH   2  15
TORSDOF 7
