REMARK  Name = ZINCrD000000Aiz4.0
REMARK                            x       y       z     vdW  Elec       q    Type
REMARK                         _______ _______ _______ _____ _____    ______ ____
ROOT
ATOM      1  C   LIG    1        3.397  -0.305  -1.164  0.00  0.00    +0.230 C 
ATOM      2  C   LIG    1        2.457   0.207  -2.259  0.00  0.00    +0.000 C 
ATOM      3  C   LIG    1        1.174   0.741  -1.616  0.00  0.00    +0.270 C 
ATOM      4  N   LIG    1        0.596  -0.311  -0.768  0.00  0.00    -0.610 N 
ATOM      5  C   LIG    1        1.442  -0.935   0.258  0.00  0.00    +0.300 C 
ATOM      6  C   LIG    1       -0.686  -0.695  -0.928  0.00  0.00    +0.570 C 
ATOM      7  O   LIG    1       -1.125  -1.629  -0.286  0.00  0.00    -0.520 OA
ATOM      8  C   LIG    1        2.723  -1.450  -0.406  0.00  0.00    +0.030 C 
ENDROOT
BRANCH   6   9
ATOM      9  C   LIG    1       -1.556   0.018  -1.883  0.00  0.00    -0.180 A 
ATOM     10  C   LIG    1       -1.594   1.414  -1.890  0.00  0.00    +0.120 A 
ATOM     11  C   LIG    1       -2.404   2.075  -2.788  0.00  0.00    -0.020 A 
ATOM     12  C   LIG    1       -3.191   1.358  -3.676  0.00  0.00    +0.160 A 
ATOM     13  C   LIG    1       -3.164  -0.027  -3.673  0.00  0.00    -0.040 A 
ATOM     14  F   LIG    1       -3.987   2.013  -4.550  0.00  0.00    -0.120 F 
ATOM     15  C   LIG    1       -2.352  -0.702  -2.782  0.00  0.00    +0.180 A 
ATOM     16  F   LIG    1       -2.325  -2.053  -2.778  0.00  0.00    -0.110 F 
ENDBRANCH   6   9
BRANCH   1  19
ATOM     17  O   LIG    1        5.503   1.257  -1.787  0.00  0.00    -0.540 OA
ATOM     18  C   LIG    1        5.636   0.079  -2.046  0.00  0.00    +0.510 C 
ATOM     19  N   LIG    1        4.639  -0.786  -1.773  0.00  0.00    -0.730 N 
ATOM     20  H   LIG    1        4.745  -1.728  -1.980  0.00  0.00    +0.400 HD
BRANCH  18  21
ATOM     21  C   LIG    1        6.914  -0.416  -2.672  0.00  0.00    +0.060 C 
BRANCH  21  22
ATOM     22  C   LIG    1        7.871   0.760  -2.875  0.00  0.00    +0.100 C 
BRANCH  22  23
ATOM     23  C   LIG    1        9.149   0.264  -3.501  0.00  0.00    -0.090 A 
ATOM     24  C   LIG    1       10.198  -0.145  -2.699  0.00  0.00    +0.000 A 
ATOM     25  C   LIG    1       11.369  -0.604  -3.273  0.00  0.00    +0.000 A 
ATOM     26  C   LIG    1       11.495  -0.644  -4.650  0.00  0.00    +0.000 A 
ATOM     27  C   LIG    1       10.447  -0.230  -5.451  0.00  0.00    +0.000 A 
ATOM     28  C   LIG    1        9.275   0.224  -4.877  0.00  0.00    +0.000 A 
ENDBRANCH  22  23
ENDBRANCH  21  22
ENDBRANCH  18  21
ENDBRANCH   1  19
TORSDOF 5
