REMARK  Name = ZINCpk00000e1xee.0
REMARK                            x       y       z     vdW  Elec       q    Type
REMARK                         _______ _______ _______ _____ _____    ______ ____
ROOT
ATOM      1  N   LIG    1       -0.011   0.966   0.007  0.00  0.00    -0.710 N 
ATOM      2  H   LIG    1        0.002  -0.004   0.002  0.00  0.00    +0.410 HD
ATOM      3  C   LIG    1        1.147   1.655   0.000  0.00  0.00    +0.530 C 
ATOM      4  O   LIG    1        1.130   2.868   0.007  0.00  0.00    -0.530 OA
ENDROOT
BRANCH   3   5
ATOM      5  C   LIG    1        2.462   0.920  -0.017  0.00  0.00    -0.010 C 
ATOM      6  C   LIG    1        2.569   0.037   1.229  0.00  0.00    +0.040 C 
ATOM      7  C   LIG    1        3.890  -0.735   1.197  0.00  0.00    +0.020 C 
ATOM      8  C   LIG    1        5.057   0.257   1.205  0.00  0.00    +0.280 C 
ATOM      9  N   LIG    1        4.883   1.201   0.093  0.00  0.00    -1.000 NA
ATOM     10  C   LIG    1        3.613   1.931  -0.022  0.00  0.00    +0.320 C 
BRANCH   9  11
ATOM     11  S   LIG    1        6.096   1.439  -1.009  0.00  0.00    +2.610 S 
ATOM     12  O   LIG    1        5.422   1.864  -2.186  0.00  0.00    -0.950 OA
ATOM     13  O   LIG    1        6.835   0.226  -0.985  0.00  0.00    -0.950 OA
ATOM     14  C   LIG    1        7.079   2.796  -0.315  0.00  0.00    -0.280 C 
ENDBRANCH   9  11
ENDBRANCH   3   5
BRANCH   1  15
ATOM     15  C   LIG    1       -1.290   1.681   0.017  0.00  0.00    +0.340 C 
BRANCH  15  16
ATOM     16  C   LIG    1       -2.360   0.806  -0.583  0.00  0.00    -0.090 A 
ATOM     17  C   LIG    1       -2.383  -0.548  -0.302  0.00  0.00    +0.030 A 
ATOM     18  C   LIG    1       -3.368  -1.350  -0.847  0.00  0.00    +0.050 A 
ATOM     19  C   LIG    1       -4.322  -0.800  -1.684  0.00  0.00    -0.080 A 
ATOM     20  C   LIG    1       -4.295   0.553  -1.970  0.00  0.00    +0.060 A 
ATOM     21 BR   LIG    1       -5.665  -1.899  -2.438  0.00  0.00    -0.040 Br
ATOM     22  C   LIG    1       -3.313   1.355  -1.419  0.00  0.00    +0.060 A 
ENDBRANCH  15  16
BRANCH  15  23
ATOM     23  C   LIG    1       -1.661   2.027   1.436  0.00  0.00    +0.450 C 
ATOM     24  O   LIG    1       -0.932   1.708   2.346  0.00  0.00    -0.490 OA
BRANCH  23  26
ATOM     25  C   LIG    1       -3.094   2.987   3.080  0.00  0.00    +0.270 C 
ATOM     26  O   LIG    1       -2.801   2.688   1.690  0.00  0.00    -0.350 OA
ENDBRANCH  23  26
ENDBRANCH  15  23
ENDBRANCH   1  15
TORSDOF 6
