REMARK  Name = ZINCpk00000xXyxt.0
REMARK                            x       y       z     vdW  Elec       q    Type
REMARK                         _______ _______ _______ _____ _____    ______ ____
ROOT
ATOM      1  C   LIG    1        4.057   0.059   1.357  0.00  0.00    +0.070 C 
ATOM      2  C   LIG    1        3.558   0.472  -0.029  0.00  0.00    +0.360 C 
ENDROOT
BRANCH   2   3
ATOM      3  N   LIG    1        3.973  -0.529  -1.015  0.00  0.00    -0.730 N 
ATOM      4  H   LIG    1        3.367  -1.244  -1.264  0.00  0.00    +0.410 HD
ATOM      5  C   LIG    1        5.197  -0.457  -1.575  0.00  0.00    +0.720 C 
ATOM      6  N   LIG    1        5.579  -1.378  -2.482  0.00  0.00    -0.610 N 
ATOM      7  C   LIG    1        4.690  -2.445  -2.854  0.00  0.00    +0.240 C 
ATOM      8  C   LIG    1        4.828  -3.746  -2.044  0.00  0.00    +0.210 C 
ATOM      9  O   LIG    1        6.224  -4.058  -1.808  0.00  0.00    -0.360 OA
ATOM     10  C   LIG    1        7.079  -3.800  -2.884  0.00  0.00    +0.240 C 
ATOM     11  C   LIG    1        7.718  -2.443  -2.601  0.00  0.00    +0.250 C 
ATOM     12  F   LIG    1        7.864  -2.300  -1.217  0.00  0.00    -0.180 F 
ATOM     13  F   LIG    1        8.986  -2.414  -3.189  0.00  0.00    -0.200 F 
ATOM     14  C   LIG    1        6.937  -1.307  -3.111  0.00  0.00    +0.330 C 
ATOM     15  O   LIG    1        5.957   0.439  -1.262  0.00  0.00    -0.570 OA
ENDBRANCH   2   3
BRANCH   2  16
ATOM     16  C   LIG    1        2.055   0.569  -0.015  0.00  0.00    +0.240 A 
ATOM     17  N   LIG    1        1.213  -0.431  -0.012  0.00  0.00    -0.320 NA
ATOM     18  N   LIG    1        0.002  -0.004   0.002  0.00  0.00    -0.030 NA
ATOM     19  N   LIG    1       -0.015   1.285   0.009  0.00  0.00    -0.070 NA
ATOM     20  N   LIG    1        1.326   1.706  -0.001  0.00  0.00    -0.320 N 
BRANCH  20  21
ATOM     21  C   LIG    1        1.805   3.025   0.000  0.00  0.00    +0.110 A 
ATOM     22  C   LIG    1        2.971   3.340   0.684  0.00  0.00    +0.020 A 
ATOM     23  C   LIG    1        3.443   4.638   0.679  0.00  0.00    +0.050 A 
ATOM     24  C   LIG    1        2.749   5.625   0.004  0.00  0.00    +0.040 A 
ATOM     25  C   LIG    1        1.584   5.315  -0.674  0.00  0.00    +0.040 A 
ATOM     26  C   LIG    1        1.110   4.018  -0.677  0.00  0.00    +0.050 A 
ENDBRANCH  20  21
ENDBRANCH   2  16
TORSDOF 3
