REMARK  Name = ZINCrD000000AlPF.2
REMARK                            x       y       z     vdW  Elec       q    Type
REMARK                         _______ _______ _______ _____ _____    ______ ____
ROOT
ATOM      1  N   LIG    1       -0.303   1.293  -4.840  0.00  0.00    -0.520 NA
ATOM      2  C   LIG    1        1.028   1.902  -4.958  0.00  0.00    +0.180 C 
ATOM      3  C   LIG    1        1.770   1.282  -6.145  0.00  0.00    +0.040 C 
ATOM      4  C   LIG    1        0.965   1.520  -7.425  0.00  0.00    +0.030 C 
ATOM      5  C   LIG    1       -0.434   0.918  -7.258  0.00  0.00    +0.010 C 
ATOM      6  C   LIG    1       -1.112   1.549  -6.039  0.00  0.00    +0.220 C 
ENDROOT
BRANCH   5   7
ATOM      7  C   LIG    1       -1.253   1.199  -8.491  0.00  0.00    +0.520 C 
ATOM      8  N   LIG    1       -0.846   0.738  -9.690  0.00  0.00    -0.670 N 
ATOM      9  H   LIG    1        0.007   0.283  -9.770  0.00  0.00    +0.410 HD
ATOM     10  O   LIG    1       -2.279   1.840  -8.404  0.00  0.00    -0.520 OA
BRANCH   8  11
ATOM     11  C   LIG    1       -1.653   0.914 -10.819  0.00  0.00    +0.140 A 
ATOM     12  C   LIG    1       -1.690  -0.060 -11.808  0.00  0.00    -0.020 A 
ATOM     13  C   LIG    1       -2.492   0.115 -12.918  0.00  0.00    +0.030 A 
ATOM     14  C   LIG    1       -3.251   1.263 -13.051  0.00  0.00    -0.010 A 
ATOM     15  C   LIG    1       -3.213   2.238 -12.070  0.00  0.00    +0.030 A 
ATOM     16  C   LIG    1       -2.416   2.067 -10.955  0.00  0.00    +0.020 A 
ENDBRANCH   8  11
ENDBRANCH   5   7
BRANCH   1  17
ATOM     17  C   LIG    1       -0.992   1.764  -3.631  0.00  0.00    +0.220 C 
BRANCH  17  19
ATOM     18  O   LIG    1        0.742   0.595  -2.537  0.00  0.00    -0.520 OA
ATOM     19  C   LIG    1       -0.257   1.271  -2.411  0.00  0.00    +0.510 C 
ATOM     20  N   LIG    1       -0.709   1.582  -1.180  0.00  0.00    -0.740 N 
ATOM     21  H   LIG    1       -1.508   2.123  -1.079  0.00  0.00    +0.400 HD
BRANCH  20  22
ATOM     22  C   LIG    1        0.005   1.103   0.006  0.00  0.00    +0.270 C 
BRANCH  22  23
ATOM     23  C   LIG    1       -0.712   1.593   1.266  0.00  0.00    +0.050 C 
BRANCH  23  24
ATOM     24  C   LIG    1        0.023   1.100   2.486  0.00  0.00    -0.120 C 
ATOM     25  C   LIG    1        0.891   1.891   3.032  0.00  0.00    -0.050 C 
ATOM     26  C   LIG    1        1.705   1.538   4.242  0.00  0.00    +0.050 C 
ATOM     27  C   LIG    1        1.082   0.342   4.966  0.00  0.00    +0.010 C 
ATOM     28  C   LIG    1        0.807  -0.760   3.935  0.00  0.00    +0.020 C 
ATOM     29  C   LIG    1       -0.300  -0.274   2.995  0.00  0.00    +0.060 C 
ENDBRANCH  23  24
ENDBRANCH  22  23
ENDBRANCH  20  22
ENDBRANCH  17  19
ENDBRANCH   1  17
TORSDOF 7
