REMARK  Name = ZINCvU0000000J0h.0
REMARK                            x       y       z     vdW  Elec       q    Type
REMARK                         _______ _______ _______ _____ _____    ______ ____
ROOT
ATOM      1  C   LIG    1        1.155   3.191   0.008  0.00  0.00    -0.130 A 
ATOM      2  C   LIG    1       -0.073   3.857   0.024  0.00  0.00    +0.070 A 
ATOM      3  C   LIG    1       -1.247   3.134   0.031  0.00  0.00    -0.010 A 
ATOM      4  C   LIG    1       -1.217   1.749   0.017  0.00  0.00    +0.060 A 
ATOM      5  C   LIG    1       -0.013   1.076   0.008  0.00  0.00    -0.020 A 
ATOM      6  C   LIG    1        1.182   1.786   0.000  0.00  0.00    -0.040 A 
ENDROOT
BRANCH   1   8
ATOM      7  O   LIG    1        3.481   3.374  -0.012  0.00  0.00    -0.510 OA
ATOM      8  C   LIG    1        2.414   3.957   0.001  0.00  0.00    +0.560 C 
ATOM      9  N   LIG    1        2.382   5.305   0.008  0.00  0.00    -0.720 N 
ATOM     10  H   LIG    1        1.531   5.770   0.019  0.00  0.00    +0.400 HD
BRANCH   9  11
ATOM     11  C   LIG    1        3.634   6.066   0.001  0.00  0.00    +0.320 C 
BRANCH  11  12
ATOM     12  C   LIG    1        3.324   7.541   0.012  0.00  0.00    -0.080 A 
ATOM     13  C   LIG    1        3.177   8.225  -1.181  0.00  0.00    +0.040 A 
ATOM     14  C   LIG    1        2.888   9.577  -1.171  0.00  0.00    +0.070 A 
ATOM     15  C   LIG    1        2.757  10.247   0.031  0.00  0.00    -0.170 A 
ATOM     16  C   LIG    1        2.909   9.564   1.224  0.00  0.00    +0.070 A 
ATOM     17  C   LIG    1        3.193   8.211   1.214  0.00  0.00    +0.040 A 
BRANCH  15  18
ATOM     18  C   LIG    1        2.448  11.722   0.042  0.00  0.00    +0.510 C 
ATOM     19  F   LIG    1        1.717  12.037   1.193  0.00  0.00    -0.180 F 
ATOM     20  F   LIG    1        1.696  12.049  -1.092  0.00  0.00    -0.180 F 
ATOM     21  F   LIG    1        3.643  12.449   0.035  0.00  0.00    -0.170 F 
ENDBRANCH  15  18
ENDBRANCH  11  12
ENDBRANCH   9  11
ENDBRANCH   1   8
BRANCH   6  22
ATOM     22  S   LIG    1        2.722   0.930  -0.019  0.00  0.00    +0.030 S 
BRANCH  22  23
ATOM     23  C   LIG    1        2.220  -0.813  -0.025  0.00  0.00    +0.120 C 
BRANCH  23  24
ATOM     24  C   LIG    1        3.446  -1.688  -0.042  0.00  0.00    +0.080 A 
ATOM     25  C   LIG    1        4.074  -2.145  -1.148  0.00  0.00    +0.110 A 
ATOM     26  N   LIG    1        5.136  -2.898  -0.728  0.00  0.00    -0.360 N 
ATOM     27  C   LIG    1        6.101  -3.589  -1.401  0.00  0.00    +0.210 A 
ATOM     28  C   LIG    1        7.054  -4.270  -0.730  0.00  0.00    +0.010 A 
ATOM     29  C   LIG    1        7.064  -4.276   0.674  0.00  0.00    +0.040 A 
ATOM     30  C   LIG    1        6.108  -3.591   1.358  0.00  0.00    +0.070 A 
ATOM     31  C   LIG    1        5.120  -2.885   0.643  0.00  0.00    +0.230 A 
ATOM     32  N   LIG    1        4.090  -2.148   1.034  0.00  0.00    -0.480 NA
ENDBRANCH  23  24
ENDBRANCH  22  23
ENDBRANCH   6  22
TORSDOF 7
