REMARK  Name = ZINCrD00000EHSwm.0
REMARK                            x       y       z     vdW  Elec       q    Type
REMARK                         _______ _______ _______ _____ _____    ______ ____
ROOT
ATOM      1  C   LIG    1       -0.785   2.999   1.323  0.00  0.00    +0.260 C 
ENDROOT
BRANCH   1   2
ATOM      2  C   LIG    1       -1.774   2.650   2.406  0.00  0.00    +0.180 A 
ATOM      3  N   LIG    1       -2.578   1.626   2.397  0.00  0.00    -0.430 NA
ATOM      4  C   LIG    1       -3.307   1.639   3.527  0.00  0.00    -0.020 A 
ATOM      5  C   LIG    1       -2.934   2.716   4.239  0.00  0.00    -0.040 A 
ATOM      6  C   LIG    1       -3.486   3.140   5.575  0.00  0.00    +0.190 C 
ATOM      7  C   LIG    1       -4.356   0.632   3.921  0.00  0.00    +0.160 C 
ATOM      8  O   LIG    1       -1.974   3.346   3.533  0.00  0.00    -0.200 OA
ENDBRANCH   1   2
BRANCH   1  11
ATOM      9  N   LIG    1       -1.794   4.888   0.087  0.00  0.00    -0.730 N 
ATOM     10  H   LIG    1       -1.520   5.470   0.813  0.00  0.00    +0.400 HD
ATOM     11  C   LIG    1       -1.518   3.570   0.138  0.00  0.00    +0.520 C 
ATOM     12  O   LIG    1       -1.861   2.844  -0.771  0.00  0.00    -0.490 OA
BRANCH   9  13
ATOM     13  C   LIG    1       -2.507   5.444  -1.066  0.00  0.00    +0.330 C 
BRANCH  13  17
ATOM     14  C   LIG    1       -3.020   9.653  -0.533  0.00  0.00    +0.140 A 
ATOM     15  C   LIG    1       -1.889   9.166  -1.172  0.00  0.00    -0.020 A 
ATOM     16  C   LIG    1       -1.726   7.805  -1.343  0.00  0.00    +0.070 A 
ATOM     17  C   LIG    1       -2.688   6.928  -0.878  0.00  0.00    -0.150 A 
ATOM     18  C   LIG    1       -3.819   7.411  -0.245  0.00  0.00    +0.070 A 
ATOM     19  C   LIG    1       -3.984   8.771  -0.066  0.00  0.00    -0.080 A 
BRANCH  14  21
ATOM     20  C   LIG    1       -4.372  11.420   0.304  0.00  0.00    +0.250 C 
ATOM     21  O   LIG    1       -3.184  10.991  -0.363  0.00  0.00    -0.320 OA
ENDBRANCH  14  21
ENDBRANCH  13  17
ENDBRANCH   9  13
ENDBRANCH   1  11
BRANCH   1  22
ATOM     22  N   LIG    1       -0.059   1.789   0.914  0.00  0.00    -0.490 NA
ATOM     23  C   LIG    1        0.917   2.092  -0.141  0.00  0.00    +0.210 C 
BRANCH  22  24
ATOM     24  C   LIG    1        0.592   1.151   2.066  0.00  0.00    +0.170 C 
ATOM     25  C   LIG    1        1.849   1.940   2.501  0.00  0.00    +0.020 C 
ATOM     26  C   LIG    1        2.845   0.879   2.908  0.00  0.00    -0.050 C 
ATOM     27  C   LIG    1        2.495  -0.294   2.456  0.00  0.00    -0.030 C 
ATOM     28  C   LIG    1        1.207  -0.212   1.671  0.00  0.00    +0.080 C 
ENDBRANCH  22  24
ENDBRANCH   1  22
TORSDOF 7
