REMARK  Name = ZINCpk000005oVRT.0
REMARK                            x       y       z     vdW  Elec       q    Type
REMARK                         _______ _______ _______ _____ _____    ______ ____
ROOT
ATOM      1  N   LIG    1       -0.466   0.882   5.903  0.00  0.00    -0.450 N 
ATOM      2  C   LIG    1       -1.292  -0.128   5.194  0.00  0.00    +0.210 C 
ATOM      3  C   LIG    1       -2.012   0.705   4.104  0.00  0.00    +0.050 C 
ATOM      4  C   LIG    1       -0.927   1.718   3.671  0.00  0.00    +0.250 C 
ATOM      5  C   LIG    1        0.056   1.785   4.854  0.00  0.00    +0.160 C 
ATOM      6  C   LIG    1        0.133   3.216   5.389  0.00  0.00    +0.060 C 
ENDROOT
BRANCH   1  11
ATOM      7  C   LIG    1        2.825  -0.035   6.949  0.00  0.00    +0.530 A 
ATOM      8  N   LIG    1        2.599  -0.886   7.936  0.00  0.00    -0.590 NA
ATOM      9  C   LIG    1        1.362  -1.194   8.301  0.00  0.00    +0.230 A 
ATOM     10  C   LIG    1        0.299  -0.612   7.640  0.00  0.00    -0.120 A 
ATOM     11  C   LIG    1        0.569   0.278   6.598  0.00  0.00    +0.390 A 
ATOM     12  C   LIG    1        1.120  -2.164   9.428  0.00  0.00    +0.140 C 
ATOM     13  N   LIG    1        1.834   0.540   6.287  0.00  0.00    -0.560 NA
BRANCH   7  15
ATOM     14  C   LIG    1        5.136  -0.394   7.351  0.00  0.00    +0.270 C 
ATOM     15  O   LIG    1        4.103   0.254   6.606  0.00  0.00    -0.290 OA
ENDBRANCH   7  15
ENDBRANCH   1  11
BRANCH   4  16
ATOM     16  N   LIG    1       -0.242   1.246   2.466  0.00  0.00    -0.730 N 
ATOM     17  H   LIG    1        0.555   0.699   2.544  0.00  0.00    +0.400 HD
ATOM     18  C   LIG    1       -0.718   1.572   1.248  0.00  0.00    +0.520 C 
ATOM     19  O   LIG    1       -1.714   2.256   1.150  0.00  0.00    -0.520 OA
BRANCH  18  20
ATOM     20  C   LIG    1       -0.013   1.086   0.008  0.00  0.00    +0.170 C 
BRANCH  20  21
ATOM     21  C   LIG    1       -0.742   1.585  -1.213  0.00  0.00    +0.020 A 
ATOM     22  N   LIG    1       -2.001   1.415  -1.493  0.00  0.00    -0.340 NA
ATOM     23  O   LIG    1       -2.297   1.932  -2.545  0.00  0.00    +0.100 OA
ATOM     24  C   LIG    1       -1.241   2.530  -3.115  0.00  0.00    -0.030 A 
ATOM     25  C   LIG    1       -1.224   3.275  -4.425  0.00  0.00    +0.180 C 
ATOM     26  C   LIG    1       -0.194   2.337  -2.278  0.00  0.00    -0.060 A 
ENDBRANCH  20  21
ENDBRANCH  18  20
ENDBRANCH   4  16
TORSDOF 5
