REMARK  Name = ZINCpe000000YC5y.0
REMARK                            x       y       z     vdW  Elec       q    Type
REMARK                         _______ _______ _______ _____ _____    ______ ____
ROOT
ATOM      1  C   LIG    1       -1.208   3.131   0.025  0.00  0.00    +0.210 C 
ATOM      2  C   LIG    1       -1.079   3.682  -1.409  0.00  0.00    +0.130 C 
ATOM      3  C   LIG    1       -2.363   4.451  -1.621  0.00  0.00    +0.020 C 
ATOM      4  N   LIG    1       -3.093   4.374  -0.555  0.00  0.00    -0.170 NA
ATOM      5  N   LIG    1       -2.518   3.628   0.472  0.00  0.00    -0.440 N 
ENDROOT
BRANCH   5   6
ATOM      6  C   LIG    1       -3.093   3.390   1.722  0.00  0.00    +0.220 A 
ATOM      7  C   LIG    1       -2.420   2.621   2.663  0.00  0.00    -0.050 A 
ATOM      8  C   LIG    1       -2.990   2.391   3.899  0.00  0.00    +0.050 A 
ATOM      9  C   LIG    1       -4.234   2.917   4.198  0.00  0.00    -0.030 A 
ATOM     10  C   LIG    1       -4.909   3.679   3.262  0.00  0.00    +0.050 A 
ATOM     11  C   LIG    1       -4.343   3.917   2.025  0.00  0.00    -0.020 A 
ENDBRANCH   5   6
BRANCH   1  15
ATOM     12  N   LIG    1       -0.011   0.966   0.007  0.00  0.00    -0.850 N 
ATOM     13  H   LIG    1        0.822   1.462   0.002  0.00  0.00    +0.400 HD
ATOM     14  H   LIG    1        0.002  -0.004   0.002  0.00  0.00    +0.410 HD
ATOM     15  C   LIG    1       -1.187   1.624   0.017  0.00  0.00    +0.510 C 
ATOM     16  O   LIG    1       -2.229   1.003   0.018  0.00  0.00    -0.510 OA
ENDBRANCH   1  15
BRANCH   3  17
ATOM     17  C   LIG    1       -2.725   5.170  -2.843  0.00  0.00    +0.600 C 
ATOM     18  N   LIG    1       -3.902   5.823  -2.917  0.00  0.00    -0.710 N 
ATOM     19  H   LIG    1       -4.509   5.815  -2.161  0.00  0.00    +0.410 HD
ATOM     20  O   LIG    1       -1.963   5.180  -3.792  0.00  0.00    -0.520 OA
BRANCH  18  21
ATOM     21  C   LIG    1       -4.264   6.543  -4.140  0.00  0.00    +0.290 C 
BRANCH  21  22
ATOM     22  C   LIG    1       -5.639   7.191  -3.962  0.00  0.00    +0.100 C 
BRANCH  22  23
ATOM     23  C   LIG    1       -6.012   7.932  -5.221  0.00  0.00    +0.130 A 
ATOM     24  C   LIG    1       -7.203   7.640  -5.857  0.00  0.00    -0.030 A 
ATOM     25  C   LIG    1       -7.538   8.331  -7.012  0.00  0.00    +0.070 A 
ATOM     26  C   LIG    1       -6.655   9.286  -7.490  0.00  0.00    -0.030 A 
ATOM     27  C   LIG    1       -5.479   9.520  -6.802  0.00  0.00    +0.260 A 
ATOM     28  N   LIG    1       -5.195   8.847  -5.704  0.00  0.00    -0.480 NA
ENDBRANCH  22  23
ENDBRANCH  21  22
ENDBRANCH  18  21
ENDBRANCH   3  17
TORSDOF 6
