REMARK  Name = ZINCpk00000KfKPH.0
REMARK                            x       y       z     vdW  Elec       q    Type
REMARK                         _______ _______ _______ _____ _____    ______ ____
ROOT
ATOM      1  O   LIG    1        2.090   1.594   0.790  0.00  0.00    -0.490 OA
ATOM      2  C   LIG    1        3.235   2.003   0.785  0.00  0.00    +0.590 C 
ATOM      3  N   LIG    1        3.479   3.324   0.906  0.00  0.00    -0.620 N 
ATOM      4  C   LIG    1        4.804   3.970   0.818  0.00  0.00    +0.240 C 
ATOM      5  C   LIG    1        4.655   5.292   1.611  0.00  0.00    +0.040 C 
ATOM      6  C   LIG    1        3.208   5.714   1.244  0.00  0.00    +0.050 C 
ATOM      7  C   LIG    1        2.468   4.363   1.149  0.00  0.00    +0.220 C 
ENDROOT
BRANCH   2   8
ATOM      8  C   LIG    1        4.357   1.056   0.647  0.00  0.00    -0.150 A 
ATOM      9  C   LIG    1        5.478   1.388  -0.121  0.00  0.00    +0.100 A 
ATOM     10  C   LIG    1        6.504   0.464  -0.219  0.00  0.00    -0.030 A 
ATOM     11  C   LIG    1        6.395  -0.748   0.438  0.00  0.00    +0.300 A 
ATOM     12  N   LIG    1        5.329  -1.042   1.158  0.00  0.00    -0.510 NA
ATOM     13  C   LIG    1        4.321  -0.193   1.289  0.00  0.00    +0.350 A 
BRANCH  13  14
ATOM     14  N   LIG    1        3.226  -0.541   2.058  0.00  0.00    -0.480 N 
ATOM     15  C   LIG    1        3.585  -0.617   3.482  0.00  0.00    +0.160 C 
ATOM     16  C   LIG    1        2.334  -0.944   4.301  0.00  0.00    +0.230 C 
ATOM     17  O   LIG    1        1.761  -2.164   3.821  0.00  0.00    -0.380 OA
ATOM     18  C   LIG    1        1.399  -2.125   2.438  0.00  0.00    +0.220 C 
ATOM     19  C   LIG    1        2.641  -1.809   1.600  0.00  0.00    +0.180 C 
ENDBRANCH  13  14
ENDBRANCH   2   8
BRANCH   7  20
ATOM     20  C   LIG    1        1.468   4.397  -0.009  0.00  0.00    +0.310 C 
BRANCH  20  21
ATOM     21  N   LIG    1        0.440   5.405   0.263  0.00  0.00    -0.370 N 
ATOM     22  C   LIG    1        0.114   6.442  -0.536  0.00  0.00    +0.220 A 
ATOM     23  C   LIG    1       -0.881   7.132   0.068  0.00  0.00    -0.120 A 
ATOM     24  C   LIG    1       -1.167   6.500   1.282  0.00  0.00    +0.220 A 
ATOM     25  N   LIG    1       -0.378   5.462   1.399  0.00  0.00    -0.290 NA
ENDBRANCH  20  21
ENDBRANCH   7  20
TORSDOF 4
