REMARK  Name = ZINCAx0000000c3Q.0
REMARK                            x       y       z     vdW  Elec       q    Type
REMARK                         _______ _______ _______ _____ _____    ______ ____
ROOT
ATOM      1  C   LIG    1        7.866  -2.753  -1.530  0.00  0.00    -0.100 A 
ATOM      2  C   LIG    1        8.543  -1.533  -1.530  0.00  0.00    +0.130 A 
ATOM      3  C   LIG    1        7.836  -0.342  -1.517  0.00  0.00    +0.100 A 
ATOM      4  C   LIG    1        6.450  -0.361  -1.503  0.00  0.00    -0.100 A 
ATOM      5  C   LIG    1        5.406   0.688  -1.493  0.00  0.00    +0.570 C 
ATOM      6  N   LIG    1        4.200   0.091  -1.479  0.00  0.00    -0.570 N 
ATOM      7  C   LIG    1        4.322  -1.249  -1.487  0.00  0.00    +0.580 C 
ATOM      8  O   LIG    1        3.405  -2.044  -1.482  0.00  0.00    -0.450 OA
ATOM      9  O   LIG    1        5.604   1.886  -1.495  0.00  0.00    -0.450 OA
ATOM     10  C   LIG    1        5.761  -1.591  -1.503  0.00  0.00    -0.150 A 
ATOM     11  C   LIG    1        6.468  -2.781  -1.516  0.00  0.00    +0.180 A 
ENDROOT
BRANCH   1  12
ATOM     12  C   LIG    1        8.629  -4.020  -1.544  0.00  0.00    +0.510 C 
ATOM     13  O   LIG    1        8.041  -5.083  -1.544  0.00  0.00    -0.490 OA
BRANCH  12  14
ATOM     14  O   LIG    1        9.976  -3.995  -1.558  0.00  0.00    -0.330 OA
BRANCH  14  15
ATOM     15  C   LIG    1       10.659  -5.276  -1.571  0.00  0.00    +0.270 C 
BRANCH  15  17
ATOM     16  O   LIG    1       12.591  -3.922  -1.584  0.00  0.00    -0.510 OA
ATOM     17  C   LIG    1       12.149  -5.051  -1.585  0.00  0.00    +0.520 C 
ATOM     18  N   LIG    1       12.989  -6.104  -1.599  0.00  0.00    -0.720 N 
ATOM     19  H   LIG    1       12.635  -7.008  -1.600  0.00  0.00    +0.410 HD
BRANCH  18  20
ATOM     20  C   LIG    1       14.438  -5.886  -1.612  0.00  0.00    +0.340 C 
BRANCH  20  21
ATOM     21  C   LIG    1       15.147  -7.215  -1.626  0.00  0.00    -0.110 A 
ATOM     22  C   LIG    1       15.488  -7.827  -0.435  0.00  0.00    +0.050 A 
ATOM     23  C   LIG    1       16.134  -9.050  -0.443  0.00  0.00    +0.040 A 
ATOM     24  C   LIG    1       16.450  -9.660  -1.646  0.00  0.00    +0.040 A 
ATOM     25  O   LIG    1       17.077 -10.839  -1.925  0.00  0.00    -0.310 OA
ATOM     26  C   LIG    1       17.483 -10.742  -3.304  0.00  0.00    +0.440 C 
ATOM     27  O   LIG    1       16.526  -9.832  -3.878  0.00  0.00    -0.310 OA
ATOM     28  C   LIG    1       16.111  -9.040  -2.846  0.00  0.00    +0.030 A 
ATOM     29  C   LIG    1       15.459  -7.818  -2.831  0.00  0.00    +0.060 A 
ENDBRANCH  20  21
ENDBRANCH  18  20
ENDBRANCH  15  17
ENDBRANCH  14  15
ENDBRANCH  12  14
ENDBRANCH   1  12
BRANCH   6  30
ATOM     30  C   LIG    1        2.922   0.806  -1.464  0.00  0.00    +0.320 C 
BRANCH  30  31
ATOM     31  C   LIG    1        2.490   1.048  -0.016  0.00  0.00    +0.060 C 
BRANCH  31  32
ATOM     32  C   LIG    1        1.175   1.783   0.000  0.00  0.00    -0.090 A 
ATOM     33  C   LIG    1       -0.013   1.076   0.008  0.00  0.00    +0.010 A 
ATOM     34  C   LIG    1       -1.219   1.751   0.017  0.00  0.00    +0.000 A 
ATOM     35  C   LIG    1       -1.238   3.133   0.029  0.00  0.00    +0.000 A 
ATOM     36  C   LIG    1       -0.050   3.840   0.022  0.00  0.00    +0.000 A 
ATOM     37  C   LIG    1        1.156   3.165   0.008  0.00  0.00    +0.010 A 
ENDBRANCH  31  32
ENDBRANCH  30  31
ENDBRANCH   6  30
TORSDOF 9
