REMARK  Name = ZINCkj000005fWLj.0
REMARK                            x       y       z     vdW  Elec       q    Type
REMARK                         _______ _______ _______ _____ _____    ______ ____
ROOT
ATOM      1  N   LIG    1        3.780  -5.373   1.430  0.00  0.00    -0.740 N 
ATOM      2  H   LIG    1        4.536  -5.630   0.880  0.00  0.00    +0.410 HD
ATOM      3  C   LIG    1        3.172  -4.187   1.228  0.00  0.00    +0.520 C 
ATOM      4  O   LIG    1        2.226  -3.865   1.916  0.00  0.00    -0.500 OA
ENDROOT
BRANCH   1   5
ATOM      5  C   LIG    1        3.297  -6.274   2.480  0.00  0.00    +0.280 C 
BRANCH   5   6
ATOM      6  C   LIG    1        4.154  -7.541   2.498  0.00  0.00    +0.250 C 
BRANCH   6   7
ATOM      7  N   LIG    1        3.756  -8.386   3.632  0.00  0.00    -0.380 N 
ATOM      8  H   LIG    1        3.798  -7.847   4.484  0.00  0.00    +0.420 HD
BRANCH   7  10
ATOM      9  C   LIG    1        1.924  -9.643   4.661  0.00  0.00    +0.080 C 
ATOM     10  C   LIG    1        2.384  -8.867   3.425  0.00  0.00    +0.240 C 
ENDBRANCH   7  10
BRANCH   7  11
ATOM     11  C   LIG    1        4.668  -9.533   3.732  0.00  0.00    +0.260 C 
ATOM     12  C   LIG    1        6.071  -9.040   4.089  0.00  0.00    +0.080 C 
ENDBRANCH   7  11
ENDBRANCH   6   7
ENDBRANCH   5   6
ENDBRANCH   1   5
BRANCH   3  13
ATOM     13  C   LIG    1        3.668  -3.260   0.148  0.00  0.00    +0.170 C 
BRANCH  13  14
ATOM     14  C   LIG    1        2.824  -2.012   0.131  0.00  0.00    +0.060 A 
ATOM     15  C   LIG    1        3.286  -0.747   0.234  0.00  0.00    +0.090 A 
ATOM     16  N   LIG    1        2.201   0.086   0.175  0.00  0.00    -0.360 N 
ATOM     17  C   LIG    1        2.075   1.443   0.230  0.00  0.00    +0.220 A 
ATOM     18  C   LIG    1        0.860   2.025   0.146  0.00  0.00    +0.010 A 
ATOM     19  C   LIG    1       -0.294   1.237   0.003  0.00  0.00    +0.050 A 
ATOM     20  C   LIG    1       -0.183  -0.117  -0.053  0.00  0.00    +0.070 A 
ATOM     21  C   LIG    1        1.093  -0.709   0.035  0.00  0.00    +0.230 A 
ATOM     22  N   LIG    1        1.495  -1.972   0.011  0.00  0.00    -0.470 NA
ENDBRANCH  13  14
ENDBRANCH   3  13
TORSDOF 7
