REMARK  Name = ZINCqH0000007crY.0
REMARK                            x       y       z     vdW  Elec       q    Type
REMARK                         _______ _______ _______ _____ _____    ______ ____
ROOT
ATOM      1  C   LIG    1       -0.665   1.819   2.608  0.00  0.00    +0.020 A 
ATOM      2  N   LIG    1       -1.819   2.324   3.000  0.00  0.00    -0.220 NA
ATOM      3  N   LIG    1       -2.616   2.433   1.999  0.00  0.00    -0.210 N 
ATOM      4  C   LIG    1       -2.006   1.992   0.865  0.00  0.00    -0.010 A 
ATOM      5  C   LIG    1       -2.220   1.792  -0.618  0.00  0.00    +0.130 C 
ATOM      6  C   LIG    1       -0.803   1.619  -1.208  0.00  0.00    +0.060 C 
ATOM      7  C   LIG    1       -0.013   1.086   0.008  0.00  0.00    +0.110 C 
ATOM      8  C   LIG    1       -0.762   1.594   1.216  0.00  0.00    -0.150 A 
ENDROOT
BRANCH   3   9
ATOM      9  C   LIG    1       -3.923   2.934   2.065  0.00  0.00    +0.120 A 
ATOM     10  C   LIG    1       -4.437   3.679   1.011  0.00  0.00    +0.020 A 
ATOM     11  C   LIG    1       -5.728   4.165   1.076  0.00  0.00    +0.040 A 
ATOM     12  C   LIG    1       -6.505   3.921   2.194  0.00  0.00    +0.020 A 
ATOM     13  C   LIG    1       -5.994   3.185   3.247  0.00  0.00    +0.040 A 
ATOM     14  C   LIG    1       -4.706   2.691   3.186  0.00  0.00    +0.040 A 
ENDBRANCH   3   9
BRANCH   1  15
ATOM     15  C   LIG    1        0.507   1.541   3.460  0.00  0.00    +0.560 C 
ATOM     16  O   LIG    1        1.516   1.072   2.972  0.00  0.00    -0.490 OA
BRANCH  15  17
ATOM     17  O   LIG    1        0.459   1.808   4.780  0.00  0.00    -0.340 OA
BRANCH  17  18
ATOM     18  C   LIG    1        1.648   1.509   5.557  0.00  0.00    +0.270 C 
BRANCH  18  22
ATOM     19  C   LIG    1        0.971   2.534   9.650  0.00  0.00    +0.140 A 
ATOM     20  C   LIG    1        0.667   1.260   9.193  0.00  0.00    -0.010 A 
ATOM     21  C   LIG    1        0.886   0.931   7.870  0.00  0.00    +0.080 A 
ATOM     22  C   LIG    1        1.409   1.871   7.000  0.00  0.00    -0.140 A 
ATOM     23  C   LIG    1        1.719   3.140   7.454  0.00  0.00    +0.080 A 
ATOM     24  C   LIG    1        1.495   3.475   8.776  0.00  0.00    -0.080 A 
BRANCH  19  26
ATOM     25  C   LIG    1        1.093   4.190  11.352  0.00  0.00    +0.250 C 
ATOM     26  O   LIG    1        0.756   2.860  10.952  0.00  0.00    -0.320 OA
ENDBRANCH  19  26
ENDBRANCH  18  22
ENDBRANCH  17  18
ENDBRANCH  15  17
ENDBRANCH   1  15
TORSDOF 6
