REMARK  Name = ZINCtV00000L6k51.0
REMARK                            x       y       z     vdW  Elec       q    Type
REMARK                         _______ _______ _______ _____ _____    ______ ____
ROOT
ATOM      1  C   LIG    1       -1.296   7.809  -0.255  0.00  0.00    -0.230 A 
ATOM      2  C   LIG    1       -2.392   8.575  -0.535  0.00  0.00    +0.110 A 
ATOM      3  C   LIG    1       -2.139   9.914  -0.656  0.00  0.00    +0.110 A 
ATOM      4  C   LIG    1       -0.831  10.267  -0.478  0.00  0.00    -0.230 A 
ATOM      5  S   LIG    1        0.127   8.835  -0.131  0.00  0.00    +0.190 S 
ENDROOT
BRANCH   1   8
ATOM      6  N   LIG    1       -0.159   5.695   0.197  0.00  0.00    -0.670 N 
ATOM      7  H   LIG    1        0.658   6.194   0.352  0.00  0.00    +0.410 HD
ATOM      8  C   LIG    1       -1.305   6.349  -0.078  0.00  0.00    +0.590 C 
ATOM      9  O   LIG    1       -2.348   5.731  -0.179  0.00  0.00    -0.500 OA
BRANCH   6  13
ATOM     10  C   LIG    1       -0.126   1.534   0.382  0.00  0.00    -0.090 A 
ATOM     11  C   LIG    1       -0.971   2.179  -0.502  0.00  0.00    +0.040 A 
ATOM     12  C   LIG    1       -0.989   3.559  -0.562  0.00  0.00    +0.020 A 
ATOM     13  C   LIG    1       -0.148   4.299   0.259  0.00  0.00    +0.140 A 
ATOM     14  C   LIG    1        0.704   3.648   1.143  0.00  0.00    -0.010 A 
ATOM     15  C   LIG    1        0.712   2.268   1.202  0.00  0.00    +0.030 A 
BRANCH  10  17
ATOM     16  C   LIG    1       -1.505  -0.475   0.839  0.00  0.00    +0.030 C 
ATOM     17  C   LIG    1       -0.114   0.029   0.449  0.00  0.00    +0.020 C 
ATOM     18  C   LIG    1        0.269  -0.539  -0.919  0.00  0.00    +0.030 C 
ENDBRANCH  10  17
ENDBRANCH   6  13
ENDBRANCH   1   8
BRANCH   4  19
ATOM     19  C   LIG    1       -0.306  11.639  -0.557  0.00  0.00    +0.590 C 
ATOM     20  N   LIG    1        1.007  11.870  -0.362  0.00  0.00    -0.670 N 
ATOM     21  H   LIG    1        1.618  11.126  -0.243  0.00  0.00    +0.410 HD
ATOM     22  O   LIG    1       -1.057  12.565  -0.798  0.00  0.00    -0.500 OA
BRANCH  20  23
ATOM     23  C   LIG    1        1.489  13.182  -0.331  0.00  0.00    +0.140 A 
ATOM     24  C   LIG    1        2.764  13.467  -0.803  0.00  0.00    -0.010 A 
ATOM     25  C   LIG    1        3.235  14.765  -0.777  0.00  0.00    +0.040 A 
ATOM     26  C   LIG    1        2.443  15.779  -0.270  0.00  0.00    -0.090 A 
ATOM     27  C   LIG    1        1.176  15.498   0.207  0.00  0.00    +0.030 A 
ATOM     28  C   LIG    1        0.697  14.203   0.178  0.00  0.00    +0.020 A 
BRANCH  26  29
ATOM     29  C   LIG    1        2.962  17.194  -0.236  0.00  0.00    +0.020 C 
ATOM     30  C   LIG    1        3.284  17.652  -1.659  0.00  0.00    +0.030 C 
ATOM     31  C   LIG    1        4.231  17.251   0.618  0.00  0.00    +0.040 C 
ENDBRANCH  26  29
ENDBRANCH  20  23
ENDBRANCH   4  19
TORSDOF 6
