REMARK  Name = ZINCrD00000l6t10.0
REMARK                            x       y       z     vdW  Elec       q    Type
REMARK                         _______ _______ _______ _____ _____    ______ ____
ROOT
ATOM      1  C   LIG    1        4.053  -1.222   5.799  0.00  0.00    +0.080 C 
ATOM      2  C   LIG    1        2.534  -1.243   5.620  0.00  0.00    +0.140 C 
ENDROOT
BRANCH   2   3
ATOM      3  N   LIG    1        2.211  -1.448   4.201  0.00  0.00    -0.510 NA
ATOM      4  C   LIG    1        0.758  -1.422   3.983  0.00  0.00    +0.170 C 
ATOM      5  C   LIG    1        0.456  -1.816   2.534  0.00  0.00    +0.310 C 
ATOM      6  N   LIG    1        1.234  -0.945   1.640  0.00  0.00    -1.000 NA
ATOM      7  C   LIG    1        2.680  -0.817   1.879  0.00  0.00    +0.320 C 
ATOM      8  C   LIG    1        2.894  -0.458   3.358  0.00  0.00    +0.180 C 
BRANCH   6   9
ATOM      9  S   LIG    1        0.504  -0.136   0.394  0.00  0.00    +2.710 S 
ATOM     10  O   LIG    1        1.522   0.135  -0.560  0.00  0.00    -0.940 OA
ATOM     11  O   LIG    1       -0.679  -0.859   0.084  0.00  0.00    -0.950 OA
BRANCH   9  12
ATOM     12  C   LIG    1       -0.017   1.426   1.021  0.00  0.00    -0.800 A 
ATOM     13  C   LIG    1        0.715   2.541   1.013  0.00  0.00    +0.160 A 
ATOM     14  C   LIG    1        0.094   3.650   1.562  0.00  0.00    -0.010 A 
ATOM     15  C   LIG    1       -1.142   3.436   2.014  0.00  0.00    +0.000 A 
ATOM     16  S   LIG    1       -1.583   1.754   1.752  0.00  0.00    +0.210 S 
ENDBRANCH   9  12
ENDBRANCH   6   9
ENDBRANCH   2   3
BRANCH   2  17
ATOM     17  C   LIG    1        1.948  -2.367   6.435  0.00  0.00    +0.520 C 
ATOM     18  N   LIG    1        1.616  -2.162   7.725  0.00  0.00    -0.670 N 
ATOM     19  H   LIG    1        1.687  -1.273   8.108  0.00  0.00    +0.410 HD
ATOM     20  O   LIG    1        1.774  -3.456   5.930  0.00  0.00    -0.490 OA
BRANCH  18  21
ATOM     21  C   LIG    1        1.170  -3.230   8.512  0.00  0.00    +0.170 A 
ATOM     22  C   LIG    1        0.526  -4.308   7.920  0.00  0.00    +0.050 A 
ATOM     23  C   LIG    1        0.091  -5.364   8.698  0.00  0.00    +0.060 A 
ATOM     24  C   LIG    1        0.286  -5.344  10.066  0.00  0.00    +0.020 A 
ATOM     25  C   LIG    1        0.923  -4.269  10.661  0.00  0.00    -0.010 A 
ATOM     26 CL   LIG    1        1.166  -4.247  12.380  0.00  0.00    -0.040 Cl
ATOM     27  C   LIG    1        1.365  -3.211   9.887  0.00  0.00    -0.070 A 
ATOM     28 CL   LIG    1        2.164  -1.862  10.633  0.00  0.00    -0.040 Cl
ENDBRANCH  18  21
ENDBRANCH   2  17
TORSDOF 5
