REMARK  Name = ZINCvU0000000D02.0
REMARK                            x       y       z     vdW  Elec       q    Type
REMARK                         _______ _______ _______ _____ _____    ______ ____
ROOT
ATOM      1  C   LIG    1       -2.761  -2.838   0.496  0.00  0.00    +0.150 A 
ATOM      2  C   LIG    1       -4.058  -2.336   0.465  0.00  0.00    +0.030 A 
ATOM      3  C   LIG    1       -5.123  -3.173   0.189  0.00  0.00    +0.050 A 
ATOM      4  C   LIG    1       -4.909  -4.513  -0.057  0.00  0.00    +0.030 A 
ATOM      5  C   LIG    1       -3.609  -5.030  -0.028  0.00  0.00    -0.080 A 
ATOM      6  C   LIG    1       -2.532  -4.181   0.245  0.00  0.00    +0.060 A 
ENDROOT
BRANCH   5   7
ATOM      7  C   LIG    1       -3.376  -6.457  -0.290  0.00  0.00    +0.260 C 
ATOM      8  C   LIG    1       -4.299  -7.182  -0.970  0.00  0.00    -0.270 C 
ATOM      9  S   LIG    1       -5.751  -6.593  -1.803  0.00  0.00    +0.130 S 
ATOM     10  C   LIG    1       -6.264  -8.200  -2.346  0.00  0.00    +0.240 C 
ATOM     11  N   LIG    1       -5.356  -9.072  -1.894  0.00  0.00    -0.470 N 
ATOM     12  S   LIG    1       -7.656  -8.567  -3.272  0.00  0.00    -0.350 S 
ATOM     13  C   LIG    1       -4.324  -8.634  -1.192  0.00  0.00    +0.550 C 
ATOM     14  O   LIG    1       -3.463  -9.377  -0.760  0.00  0.00    -0.440 OA
BRANCH  11  15
ATOM     15  C   LIG    1       -5.493 -10.440  -2.168  0.00  0.00    +0.090 A 
ATOM     16  C   LIG    1       -5.791 -11.328  -1.143  0.00  0.00    +0.040 A 
ATOM     17  C   LIG    1       -5.932 -12.674  -1.417  0.00  0.00    +0.020 A 
ATOM     18  C   LIG    1       -5.764 -13.139  -2.709  0.00  0.00    +0.030 A 
ATOM     19  C   LIG    1       -5.462 -12.258  -3.731  0.00  0.00    +0.030 A 
ATOM     20  C   LIG    1       -5.326 -10.909  -3.463  0.00  0.00    +0.050 A 
ENDBRANCH  11  15
ENDBRANCH   5   7
BRANCH   1  22
ATOM     21  C   LIG    1       -0.642  -2.433   1.498  0.00  0.00    +0.570 C 
ATOM     22  N   LIG    1       -1.688  -1.986   0.776  0.00  0.00    -0.670 N 
ATOM     23  H   LIG    1       -1.697  -1.072   0.449  0.00  0.00    +0.410 HD
ATOM     24  O   LIG    1       -0.670  -3.549   1.981  0.00  0.00    -0.520 OA
BRANCH  21  28
ATOM     25  C   LIG    1        2.748   0.053   2.091  0.00  0.00    +0.160 A 
ATOM     26  C   LIG    1        2.719  -1.222   2.643  0.00  0.00    -0.080 A 
ATOM     27  C   LIG    1        1.621  -2.032   2.454  0.00  0.00    +0.130 A 
ATOM     28  C   LIG    1        0.536  -1.569   1.705  0.00  0.00    -0.180 A 
ATOM     29  C   LIG    1        0.570  -0.286   1.151  0.00  0.00    +0.090 A 
ATOM     30  C   LIG    1        1.671   0.516   1.345  0.00  0.00    -0.020 A 
BRANCH  25  32
ATOM     31  C   LIG    1        4.904   0.309   3.058  0.00  0.00    +0.250 C 
ATOM     32  O   LIG    1        3.832   0.848   2.281  0.00  0.00    -0.310 OA
ENDBRANCH  25  32
ENDBRANCH  21  28
ENDBRANCH   1  22
TORSDOF 5
