REMARK  Name = ZINCLJ0000000sfl.0
REMARK                            x       y       z     vdW  Elec       q    Type
REMARK                         _______ _______ _______ _____ _____    ______ ____
ROOT
ATOM      1  N   LIG    1       -2.392   4.245   0.036  0.00  0.00    -0.660 N 
ATOM      2  H   LIG    1       -3.224   3.751  -0.030  0.00  0.00    +0.420 HD
ATOM      3  C   LIG    1       -1.216   3.587   0.021  0.00  0.00    +0.550 C 
ATOM      4  O   LIG    1       -0.170   4.211   0.022  0.00  0.00    -0.510 OA
ENDROOT
BRANCH   1   9
ATOM      5  C   LIG    1       -1.438   7.779  -0.328  0.00  0.00    -0.660 A 
ATOM      6  C   LIG    1       -2.453   8.403   0.374  0.00  0.00    +0.120 A 
ATOM      7  C   LIG    1       -3.451   7.652   0.967  0.00  0.00    -0.020 A 
ATOM      8  C   LIG    1       -3.441   6.270   0.853  0.00  0.00    +0.110 A 
ATOM      9  C   LIG    1       -2.413   5.641   0.150  0.00  0.00    +0.150 A 
ATOM     10  C   LIG    1       -1.415   6.401  -0.441  0.00  0.00    +0.140 A 
BRANCH   8  11
ATOM     11  N   LIG    1       -4.454   5.509   1.446  0.00  0.00    -0.500 N 
ATOM     12  C   LIG    1       -5.760   5.808   0.841  0.00  0.00    +0.160 C 
ATOM     13  C   LIG    1       -6.827   4.913   1.476  0.00  0.00    +0.220 C 
ATOM     14  O   LIG    1       -6.828   5.113   2.892  0.00  0.00    -0.380 OA
ATOM     15  C   LIG    1       -5.572   4.831   3.515  0.00  0.00    +0.220 C 
ATOM     16  C   LIG    1       -4.492   5.725   2.900  0.00  0.00    +0.160 C 
ENDBRANCH   8  11
BRANCH   5  17
ATOM     17  S   LIG    1       -0.169   8.743  -1.080  0.00  0.00    +2.690 S 
ATOM     18  O   LIG    1        0.956   7.886  -1.220  0.00  0.00    -0.940 OA
ATOM     19  O   LIG    1       -0.126   9.973  -0.371  0.00  0.00    -0.950 OA
BRANCH  17  20
ATOM     20  N   LIG    1       -0.674   9.106  -2.615  0.00  0.00    -1.000 NA
BRANCH  20  22
ATOM     21  C   LIG    1       -0.503  11.447  -3.301  0.00  0.00    +0.010 C 
ATOM     22  C   LIG    1       -1.447  10.325  -2.863  0.00  0.00    +0.280 C 
ENDBRANCH  20  22
BRANCH  20  23
ATOM     23  C   LIG    1       -0.348   8.207  -3.725  0.00  0.00    +0.300 C 
ATOM     24  C   LIG    1       -1.514   7.245  -3.962  0.00  0.00    +0.000 C 
ENDBRANCH  20  23
ENDBRANCH  17  20
ENDBRANCH   5  17
ENDBRANCH   1   9
BRANCH   3  25
ATOM     25  C   LIG    1       -1.195   2.126   0.001  0.00  0.00    -0.080 C 
ATOM     26  C   LIG    1       -0.017   1.467  -0.015  0.00  0.00    +0.140 C 
BRANCH  26  27
ATOM     27  C   LIG    1        0.004  -0.003  -0.035  0.00  0.00    -0.060 A 
ATOM     28  C   LIG    1       -1.197  -0.722  -0.032  0.00  0.00    +0.020 A 
ATOM     29  C   LIG    1       -1.172  -2.102  -0.051  0.00  0.00    +0.100 A 
ATOM     30  C   LIG    1        0.048  -2.777  -0.074  0.00  0.00    +0.180 A 
ATOM     31  C   LIG    1        1.240  -2.065  -0.078  0.00  0.00    -0.670 A 
ATOM     32  C   LIG    1        1.224  -0.687  -0.064  0.00  0.00    +0.140 A 
BRANCH  31  33
ATOM     33  S   LIG    1        2.778  -2.925  -0.108  0.00  0.00    +2.700 S 
ATOM     34  O   LIG    1        3.794  -1.932  -0.071  0.00  0.00    -0.930 OA
ATOM     35  O   LIG    1        2.675  -3.894  -1.142  0.00  0.00    -0.930 OA
BRANCH  33  36
ATOM     36  N   LIG    1        2.896  -3.768   1.313  0.00  0.00    -0.930 N 
ATOM     37  C   LIG    1        2.418  -5.138   1.518  0.00  0.00    +0.300 C 
ATOM     38  C   LIG    1        2.755  -5.466   2.982  0.00  0.00    +0.100 C 
ATOM     39  C   LIG    1        3.419  -4.214   3.509  0.00  0.00    -0.130 A 
ATOM     40  C   LIG    1        3.933  -3.918   4.756  0.00  0.00    +0.050 A 
ATOM     41  C   LIG    1        4.516  -2.687   4.992  0.00  0.00    -0.010 A 
ATOM     42  C   LIG    1        4.569  -1.745   3.981  0.00  0.00    +0.040 A 
ATOM     43  C   LIG    1        4.051  -2.034   2.736  0.00  0.00    -0.010 A 
ATOM     44  C   LIG    1        3.470  -3.279   2.487  0.00  0.00    +0.160 A 
ENDBRANCH  33  36
ENDBRANCH  31  33
BRANCH  30  45
ATOM     45  O   LIG    1        0.071  -4.135  -0.093  0.00  0.00    -0.330 OA
ATOM     46  C   LIG    1        0.068  -4.766  -1.375  0.00  0.00    +0.260 C 
ENDBRANCH  30  45
BRANCH  29  47
ATOM     47  O   LIG    1       -2.337  -2.804  -0.048  0.00  0.00    -0.300 OA
ATOM     48  C   LIG    1       -3.549  -2.048  -0.023  0.00  0.00    +0.250 C 
ENDBRANCH  29  47
ENDBRANCH  26  27
ENDBRANCH   3  25
TORSDOF 12
