REMARK  Name = ZINCpe000000WpuH.0
REMARK                            x       y       z     vdW  Elec       q    Type
REMARK                         _______ _______ _______ _____ _____    ______ ____
ROOT
ATOM      1  C   LIG    1        1.379  -4.450  -3.085  0.00  0.00    +0.300 C 
ENDROOT
BRANCH   1   4
ATOM      2  N   LIG    1        1.310  -2.635  -1.407  0.00  0.00    -0.720 N 
ATOM      3  H   LIG    1        1.274  -2.001  -2.140  0.00  0.00    +0.410 HD
ATOM      4  C   LIG    1        1.369  -3.957  -1.661  0.00  0.00    +0.510 C 
ATOM      5  O   LIG    1        1.414  -4.749  -0.744  0.00  0.00    -0.530 OA
BRANCH   2   6
ATOM      6  C   LIG    1        1.300  -2.155  -0.022  0.00  0.00    +0.330 C 
BRANCH   6  10
ATOM      7  C   LIG    1        1.187   2.072   0.002  0.00  0.00    +0.330 A 
ATOM      8  C   LIG    1       -0.017   1.380   0.010  0.00  0.00    -0.040 A 
ATOM      9  C   LIG    1        0.002  -0.004   0.002  0.00  0.00    +0.130 A 
ATOM     10  C   LIG    1        1.231  -0.649  -0.013  0.00  0.00    -0.210 A 
ATOM     11  C   LIG    1        2.389   0.103  -0.020  0.00  0.00    +0.320 A 
ATOM     12  N   LIG    1        2.339   1.421  -0.013  0.00  0.00    -0.540 NA
BRANCH   7  14
ATOM     13  C   LIG    1        2.453   4.082   0.000  0.00  0.00    +0.260 C 
ATOM     14  O   LIG    1        1.182   3.429   0.009  0.00  0.00    -0.310 OA
ENDBRANCH   7  14
ENDBRANCH   6  10
ENDBRANCH   2   6
ENDBRANCH   1   4
BRANCH   1  15
ATOM     15  N   LIG    1        1.446  -5.914  -3.094  0.00  0.00    -0.710 N 
ATOM     16  H   LIG    1        1.477  -6.403  -2.257  0.00  0.00    +0.410 HD
ATOM     17  C   LIG    1        1.467  -6.580  -4.265  0.00  0.00    +0.570 C 
ATOM     18  O   LIG    1        1.429  -5.967  -5.314  0.00  0.00    -0.530 OA
BRANCH  17  19
ATOM     19  C   LIG    1        1.535  -8.055  -4.274  0.00  0.00    -0.130 A 
ATOM     20  C   LIG    1        1.579  -8.761  -3.070  0.00  0.00    +0.070 A 
ATOM     21  C   LIG    1        1.641 -10.138  -3.080  0.00  0.00    +0.040 A 
ATOM     22  C   LIG    1        1.662 -10.827  -4.285  0.00  0.00    +0.060 A 
ATOM     23  O   LIG    1        1.720 -12.162  -4.558  0.00  0.00    -0.300 OA
ATOM     24  C   LIG    1        2.126 -12.255  -5.936  0.00  0.00    +0.440 C 
ATOM     25  O   LIG    1        1.651 -11.027  -6.518  0.00  0.00    -0.300 OA
ATOM     26  C   LIG    1        1.619 -10.127  -5.492  0.00  0.00    +0.020 A 
ATOM     27  C   LIG    1        1.550  -8.748  -5.488  0.00  0.00    +0.110 A 
ENDBRANCH  17  19
ENDBRANCH   1  15
TORSDOF 6
