REMARK  Name = ZINCri0000000iAj.1
REMARK                            x       y       z     vdW  Elec       q    Type
REMARK                         _______ _______ _______ _____ _____    ______ ____
ROOT
ATOM      1  N   LIG    1        0.008  -0.007  -0.218  0.00  0.00    -1.090 NA
ENDROOT
BRANCH   1   2
ATOM      2  C   LIG    1       -0.009   1.383  -0.253  0.00  0.00    +0.300 A 
ATOM      3  C   LIG    1       -1.211   2.067  -0.092  0.00  0.00    -0.180 A 
ATOM      4  C   LIG    1       -1.230   3.443  -0.120  0.00  0.00    +0.090 A 
ATOM      5  C   LIG    1       -0.043   4.153  -0.323  0.00  0.00    -0.240 A 
ATOM      6  C   LIG    1        1.161   3.463  -0.490  0.00  0.00    +0.100 A 
ATOM      7  C   LIG    1        1.175   2.088  -0.455  0.00  0.00    -0.090 A 
BRANCH   5   8
ATOM      8  C   LIG    1       -0.062   5.628  -0.360  0.00  0.00    +0.560 C 
ATOM      9  N   LIG    1       -1.224   6.292  -0.199  0.00  0.00    -0.710 N 
ATOM     10  H   LIG    1       -2.048   5.800  -0.058  0.00  0.00    +0.410 HD
ATOM     11  O   LIG    1        0.971   6.245  -0.537  0.00  0.00    -0.580 OA
BRANCH   9  12
ATOM     12  C   LIG    1       -1.242   7.756  -0.236  0.00  0.00    +0.180 C 
BRANCH  12  13
ATOM     13  C   LIG    1       -2.652   8.246  -0.032  0.00  0.00    +0.490 C 
ATOM     14  O   LIG    1       -2.887   9.443  -0.028  0.00  0.00    -0.700 OA
ATOM     15  O   LIG    1       -3.558   7.447   0.130  0.00  0.00    -0.690 OA
ENDBRANCH  12  13
ENDBRANCH   9  12
ENDBRANCH   5   8
ENDBRANCH   1   2
BRANCH   1  16
ATOM     16  S   LIG    1       -1.399  -0.846   0.022  0.00  0.00    +2.600 S 
ATOM     17  O   LIG    1       -2.205  -0.614  -1.125  0.00  0.00    -1.030 OA
ATOM     18  O   LIG    1       -1.824  -0.547   1.344  0.00  0.00    -1.030 OA
BRANCH  16  22
ATOM     19  C   LIG    1       -0.355  -5.253  -0.020  0.00  0.00    +0.170 A 
ATOM     20  C   LIG    1       -0.332  -4.544   1.173  0.00  0.00    -0.010 A 
ATOM     21  C   LIG    1       -0.650  -3.200   1.183  0.00  0.00    +0.140 A 
ATOM     22  C   LIG    1       -0.992  -2.561   0.005  0.00  0.00    -0.620 A 
ATOM     23  C   LIG    1       -1.021  -3.265  -1.184  0.00  0.00    +0.140 A 
ATOM     24  C   LIG    1       -0.698  -4.608  -1.201  0.00  0.00    -0.040 A 
BRANCH  19  27
ATOM     25  C   LIG    1        0.106  -8.828   1.062  0.00  0.00    +0.110 C 
ATOM     26  C   LIG    1       -0.345  -7.391   1.024  0.00  0.00    +0.510 C 
ATOM     27  N   LIG    1       -0.033  -6.615  -0.033  0.00  0.00    -0.670 N 
ATOM     28  H   LIG    1        0.415  -7.000  -0.803  0.00  0.00    +0.410 HD
ATOM     29  O   LIG    1       -0.988  -6.933   1.944  0.00  0.00    -0.520 OA
ENDBRANCH  19  27
ENDBRANCH  16  22
ENDBRANCH   1  16
TORSDOF 7
