REMARK  Name = ZINCrg00000BvrkT.0
REMARK                            x       y       z     vdW  Elec       q    Type
REMARK                         _______ _______ _______ _____ _____    ______ ____
ROOT
ATOM      1  O   LIG    1       -2.253  -0.463   1.409  0.00  0.00    -0.500 OA
ATOM      2  C   LIG    1       -2.311  -0.736   0.225  0.00  0.00    +0.590 C 
ATOM      3  N   LIG    1       -1.236  -0.543  -0.565  0.00  0.00    -0.720 N 
ATOM      4  H   LIG    1       -1.283  -0.761  -1.509  0.00  0.00    +0.400 HD
ENDROOT
BRANCH   2   5
ATOM      5  C   LIG    1       -3.554  -1.277  -0.345  0.00  0.00    +0.030 A 
ATOM      6  C   LIG    1       -4.699  -1.515   0.347  0.00  0.00    +0.080 A 
ATOM      7  C   LIG    1       -5.654  -2.030  -0.563  0.00  0.00    -0.090 A 
ATOM      8  C   LIG    1       -6.984  -2.449  -0.426  0.00  0.00    +0.100 A 
ATOM      9  C   LIG    1       -7.667  -2.911  -1.514  0.00  0.00    +0.030 A 
ATOM     10  C   LIG    1       -7.055  -2.971  -2.760  0.00  0.00    -0.040 A 
ATOM     11  C   LIG    1       -5.746  -2.564  -2.921  0.00  0.00    +0.090 A 
ATOM     12  F   LIG    1       -5.160  -2.627  -4.136  0.00  0.00    -0.130 F 
ATOM     13 CL   LIG    1       -7.945  -3.563  -4.128  0.00  0.00    -0.040 Cl
ATOM     14  C   LIG    1       -5.030  -2.089  -1.824  0.00  0.00    +0.090 A 
ATOM     15  N   LIG    1       -3.746  -1.619  -1.669  0.00  0.00    -0.570 N 
ATOM     16  H   LIG    1       -3.084  -1.542  -2.374  0.00  0.00    +0.420 HD
ENDBRANCH   2   5
BRANCH   3  17
ATOM     17  C   LIG    1        0.002  -0.004   0.002  0.00  0.00    +0.260 C 
ATOM     18  C   LIG    1       -0.019   1.545   0.011  0.00  0.00    +0.280 C 
ATOM     19  N   LIG    1        1.401   1.942  -0.001  0.00  0.00    -0.620 N 
ATOM     20  C   LIG    1        2.191   0.848  -0.584  0.00  0.00    +0.240 C 
ATOM     21  C   LIG    1        1.893   3.114   0.448  0.00  0.00    +0.540 C 
ATOM     22  O   LIG    1        1.144   3.948   0.910  0.00  0.00    -0.520 OA
ATOM     23  C   LIG    1        1.211  -0.294  -0.926  0.00  0.00    +0.170 C 
BRANCH  21  24
ATOM     24  C   LIG    1        3.373   3.387   0.375  0.00  0.00    -0.010 C 
ATOM     25  C   LIG    1        3.839   3.890  -1.002  0.00  0.00    +0.020 C 
ATOM     26  C   LIG    1        4.762   4.861  -0.247  0.00  0.00    +0.170 C 
ATOM     27  C   LIG    1        3.772   4.766   0.926  0.00  0.00    +0.080 C 
BRANCH  26  28
ATOM     28  O   LIG    1        4.829   6.161  -0.836  0.00  0.00    -0.560 OA
ATOM     29  H   LIG    1        5.450   6.227  -1.575  0.00  0.00    +0.380 HD
ENDBRANCH  26  28
ENDBRANCH  21  24
BRANCH  23  30
ATOM     30  O   LIG    1        1.789  -1.565  -0.621  0.00  0.00    -0.550 OA
ATOM     31  H   LIG    1        2.549  -1.794  -1.174  0.00  0.00    +0.390 HD
ENDBRANCH  23  30
ENDBRANCH   3  17
TORSDOF 5
