REMARK  Name = ZINCtV00001bB3mG.0
REMARK                            x       y       z     vdW  Elec       q    Type
REMARK                         _______ _______ _______ _____ _____    ______ ____
ROOT
ATOM      1  C   LIG    1        8.891  -0.035  -0.135  0.00  0.00    +0.100 C 
ATOM      2  C   LIG    1        7.502   0.546  -0.092  0.00  0.00    -0.020 A 
ATOM      3  C   LIG    1        7.321   1.898  -0.297  0.00  0.00    +0.020 A 
ATOM      4  C   LIG    1        6.042   2.438  -0.258  0.00  0.00    +0.150 A 
ATOM      5  C   LIG    1        4.946   1.595  -0.001  0.00  0.00    -0.150 A 
ATOM      6  C   LIG    1        3.599   2.172   0.033  0.00  0.00    +0.010 A 
ATOM      7  C   LIG    1        3.467   3.506  -0.174  0.00  0.00    -0.040 A 
ATOM      8  C   LIG    1        4.613   4.294  -0.421  0.00  0.00    +0.510 A 
ATOM      9  O   LIG    1        4.481   5.491  -0.605  0.00  0.00    -0.450 OA
ATOM     10  C   LIG    1        5.150   0.226   0.199  0.00  0.00    +0.090 A 
ATOM     11  O   LIG    1        5.842   3.758  -0.456  0.00  0.00    -0.270 OA
ATOM     12  C   LIG    1        6.417  -0.283   0.155  0.00  0.00    -0.090 A 
ENDROOT
BRANCH  12  13
ATOM     13  C   LIG    1        6.639  -1.758   0.377  0.00  0.00    +0.030 C 
ATOM     14  C   LIG    1        6.001  -2.547  -0.768  0.00  0.00    +0.030 C 
ATOM     15  C   LIG    1        6.000  -2.175   1.702  0.00  0.00    +0.030 C 
ENDBRANCH  12  13
BRANCH   6  16
ATOM     16  C   LIG    1        2.393   1.307   0.298  0.00  0.00    +0.320 C 
BRANCH  16  17
ATOM     17  O   LIG    1        1.196   2.128   0.284  0.00  0.00    -0.320 OA
BRANCH  17  18
ATOM     18  C   LIG    1        0.023   1.504   0.506  0.00  0.00    +0.530 C 
ATOM     19  O   LIG    1        0.001   0.306   0.706  0.00  0.00    -0.460 OA
BRANCH  18  20
ATOM     20  C   LIG    1       -1.239   2.276   0.499  0.00  0.00    +0.130 A 
ATOM     21  N   LIG    1       -1.208   3.587   0.285  0.00  0.00    -0.390 NA
ATOM     22  C   LIG    1       -2.306   4.310   0.266  0.00  0.00    +0.190 A 
ATOM     23  C   LIG    1       -3.548   3.726   0.482  0.00  0.00    -0.040 A 
ATOM     24  C   LIG    1       -3.626   2.361   0.716  0.00  0.00    +0.010 A 
ATOM     25 CL   LIG    1       -5.159   1.593   0.990  0.00  0.00    +0.020 Cl
ATOM     26 CL   LIG    1       -4.988   4.696   0.462  0.00  0.00    +0.020 Cl
ATOM     27 CL   LIG    1       -2.202   6.018  -0.026  0.00  0.00    +0.040 Cl
ATOM     28  C   LIG    1       -2.450   1.622   0.724  0.00  0.00    -0.020 A 
ATOM     29 CL   LIG    1       -2.487  -0.090   1.010  0.00  0.00    +0.040 Cl
ENDBRANCH  18  20
ENDBRANCH  17  18
ENDBRANCH  16  17
ENDBRANCH   6  16
TORSDOF 5
