REMARK  Name = ZINCbu0000001gO0.0
REMARK                            x       y       z     vdW  Elec       q    Type
REMARK                         _______ _______ _______ _____ _____    ______ ____
ROOT
ATOM      1  C   LIG    1        3.696   2.938  -2.566  0.00  0.00    +0.170 C 
ATOM      2  C   LIG    1        2.238   3.353  -2.886  0.00  0.00    +0.050 C 
ATOM      3  C   LIG    1        1.430   2.086  -2.509  0.00  0.00    +0.050 C 
ATOM      4  C   LIG    1        2.136   1.550  -1.250  0.00  0.00    -0.060 C 
ATOM      5  C   LIG    1        1.418   2.055  -0.000  0.00  0.00    +0.020 C 
ATOM      6  C   LIG    1       -0.019   1.526   0.010  0.00  0.00    +0.020 C 
ATOM      7  C   LIG    1        0.002  -0.004   0.002  0.00  0.00    +0.010 C 
ATOM      8  C   LIG    1        0.711  -0.499  -1.260  0.00  0.00    +0.010 C 
ATOM      9  C   LIG    1        2.150   0.024  -1.275  0.00  0.00    +0.030 C 
ATOM     10  C   LIG    1        3.574   2.090  -1.282  0.00  0.00    +0.050 C 
ENDROOT
BRANCH   1  11
ATOM     11  N   LIG    1        4.526   4.124  -2.321  0.00  0.00    -0.630 N 
ATOM     12  H   LIG    1        4.106   4.686  -1.596  0.00  0.00    +0.430 HD
ATOM     13  H   LIG    1        4.595   4.667  -3.169  0.00  0.00    +0.440 HD
ATOM     14  H   LIG    1        5.448   3.835  -2.031  0.00  0.00    +0.440 HD
ENDBRANCH   1  11
TORSDOF 1
