REMARK  Name = ZINCrD000000Aa5o.0
REMARK                            x       y       z     vdW  Elec       q    Type
REMARK                         _______ _______ _______ _____ _____    ______ ____
ROOT
ATOM      1  C   LIG    1       -4.167   8.355  -1.453  0.00  0.00    +0.080 C 
ENDROOT
BRANCH   1   2
ATOM      2  C   LIG    1       -4.849   9.136  -0.327  0.00  0.00    -0.020 C 
ATOM      3  C   LIG    1       -5.842   8.223   0.422  0.00  0.00    +0.040 C 
ATOM      4  C   LIG    1       -7.032   9.156   0.761  0.00  0.00    +0.000 C 
ATOM      5  C   LIG    1       -7.139  10.047  -0.501  0.00  0.00    -0.010 C 
ATOM      6  C   LIG    1       -5.673  10.295  -0.914  0.00  0.00    +0.030 C 
BRANCH   2   7
ATOM      7  C   LIG    1       -3.799   9.678   0.644  0.00  0.00    +0.070 C 
BRANCH   7   8
ATOM      8  C   LIG    1       -3.079   8.528   1.300  0.00  0.00    +0.520 C 
ATOM      9  N   LIG    1       -2.126   8.767   2.222  0.00  0.00    -0.620 N 
ATOM     10  C   LIG    1       -1.767  10.143   2.601  0.00  0.00    +0.250 C 
ATOM     11  C   LIG    1       -1.803  10.242   4.135  0.00  0.00    +0.220 C 
ATOM     12  O   LIG    1       -0.997   9.200   4.691  0.00  0.00    -0.380 OA
ATOM     13  C   LIG    1       -1.459   7.881   4.391  0.00  0.00    +0.220 C 
ATOM     14  C   LIG    1       -1.409   7.661   2.875  0.00  0.00    +0.260 C 
ATOM     15  O   LIG    1       -3.357   7.387   0.997  0.00  0.00    -0.540 OA
ENDBRANCH   7   8
ENDBRANCH   2   7
ENDBRANCH   1   2
BRANCH   1  17
ATOM     16  O   LIG    1       -3.217  10.458  -1.950  0.00  0.00    -0.520 OA
ATOM     17  C   LIG    1       -3.329   9.296  -2.280  0.00  0.00    +0.510 C 
ATOM     18  N   LIG    1       -2.705   8.846  -3.386  0.00  0.00    -0.680 N 
ATOM     19  H   LIG    1       -2.851   7.937  -3.690  0.00  0.00    +0.410 HD
BRANCH  18  20
ATOM     20  C   LIG    1       -1.845   9.691  -4.097  0.00  0.00    +0.140 A 
ATOM     21  C   LIG    1       -0.708   9.177  -4.705  0.00  0.00    -0.020 A 
ATOM     22  C   LIG    1        0.137  10.015  -5.404  0.00  0.00    +0.030 A 
ATOM     23  C   LIG    1       -0.145  11.368  -5.503  0.00  0.00    -0.110 A 
ATOM     24  C   LIG    1        0.616  12.479  -6.201  0.00  0.00    +0.070 C 
ATOM     25  C   LIG    1        0.061  13.786  -5.597  0.00  0.00    +0.030 C 
ATOM     26  C   LIG    1       -1.358  13.374  -5.151  0.00  0.00    +0.080 C 
ATOM     27  C   LIG    1       -1.277  11.883  -4.898  0.00  0.00    -0.080 A 
ATOM     28  C   LIG    1       -2.126  11.047  -4.196  0.00  0.00    +0.030 A 
ENDBRANCH  18  20
ENDBRANCH   1  17
TORSDOF 5
