REMARK  Name = ZINCpe00000gLMx2.0
REMARK                            x       y       z     vdW  Elec       q    Type
REMARK                         _______ _______ _______ _____ _____    ______ ____
ROOT
ATOM      1  N   LIG    1        0.444   6.250   1.325  0.00  0.00    -1.100 NA
ATOM      2  H   LIG    1       -0.129   6.783   1.897  0.00  0.00    +0.430 HD
ENDROOT
BRANCH   1   3
ATOM      3  S   LIG    1       -0.133   5.672  -0.116  0.00  0.00    +2.700 S 
ATOM      4  O   LIG    1       -1.487   6.093  -0.204  0.00  0.00    -0.950 OA
ATOM      5  O   LIG    1        0.846   5.989  -1.096  0.00  0.00    -0.940 OA
BRANCH   3   6
ATOM      6  C   LIG    1       -0.166   3.914   0.003  0.00  0.00    -0.640 A 
ATOM      7  C   LIG    1       -1.349   3.254  -0.033  0.00  0.00    +0.210 A 
ATOM      8  C   LIG    1       -1.411   1.863   0.052  0.00  0.00    +0.020 A 
ATOM      9  C   LIG    1       -0.294   1.109   0.188  0.00  0.00    +0.150 A 
ATOM     10  C   LIG    1        0.978   1.733   0.234  0.00  0.00    +0.060 A 
ATOM     11  N   LIG    1        2.193   1.221   0.354  0.00  0.00    -0.580 NA
ATOM     12  S   LIG    1        3.241   2.370   0.348  0.00  0.00    +0.830 S 
ATOM     13  N   LIG    1        2.301   3.600   0.197  0.00  0.00    -0.610 NA
ATOM     14  C   LIG    1        1.045   3.189   0.138  0.00  0.00    +0.150 A 
ENDBRANCH   3   6
ENDBRANCH   1   3
BRANCH   1  15
ATOM     15  C   LIG    1        1.819   5.956   1.734  0.00  0.00    +0.270 C 
BRANCH  15  16
ATOM     16  C   LIG    1        2.384   7.136   2.482  0.00  0.00    +0.530 C 
ATOM     17  N   LIG    1        3.698   7.422   2.396  0.00  0.00    -0.610 N 
ATOM     18  C   LIG    1        4.621   6.532   1.673  0.00  0.00    +0.250 C 
ATOM     19  C   LIG    1        5.439   7.386   0.691  0.00  0.00    +0.210 C 
ATOM     20  O   LIG    1        6.033   8.477   1.400  0.00  0.00    -0.380 OA
ATOM     21  C   LIG    1        5.090   9.379   1.983  0.00  0.00    +0.220 C 
ATOM     22  C   LIG    1        4.253   8.630   3.026  0.00  0.00    +0.260 C 
ATOM     23  O   LIG    1        1.656   7.828   3.161  0.00  0.00    -0.520 OA
ENDBRANCH  15  16
BRANCH  15  25
ATOM     24  C   LIG    1        3.272   4.371   3.008  0.00  0.00    +0.040 C 
ATOM     25  C   LIG    1        1.829   4.725   2.643  0.00  0.00    -0.030 C 
ATOM     26  C   LIG    1        1.039   5.026   3.918  0.00  0.00    +0.030 C 
ENDBRANCH  15  25
ENDBRANCH   1  15
TORSDOF 5
