REMARK  Name = ZINCtV00001bB3Jy.0
REMARK                            x       y       z     vdW  Elec       q    Type
REMARK                         _______ _______ _______ _____ _____    ______ ____
ROOT
ATOM      1  C   LIG    1       -7.429   0.768   0.045  0.00  0.00    +0.060 A 
ATOM      2  C   LIG    1       -6.272   1.562  -0.002  0.00  0.00    -0.190 A 
ATOM      3  C   LIG    1       -6.399   2.961  -0.008  0.00  0.00    +0.190 A 
ATOM      4  N   LIG    1       -7.569   3.544   0.034  0.00  0.00    -0.470 NA
ATOM      5  C   LIG    1       -8.711   2.846   0.085  0.00  0.00    +0.140 A 
ATOM      6  C   LIG    1       -9.952   3.501   0.129  0.00  0.00    +0.040 A 
ATOM      7  C   LIG    1      -11.102   2.771   0.179  0.00  0.00    +0.040 A 
ATOM      8  C   LIG    1      -11.068   1.379   0.190  0.00  0.00    +0.010 A 
ATOM      9  C   LIG    1       -9.882   0.709   0.149  0.00  0.00    +0.040 A 
ATOM     10  C   LIG    1       -5.156   3.811  -0.064  0.00  0.00    +0.140 C 
ATOM     11  C   LIG    1       -8.681   1.430   0.096  0.00  0.00    -0.100 A 
ENDROOT
BRANCH   1  16
ATOM     12  C   LIG    1       -7.099  -4.977   0.054  0.00  0.00    +0.090 C 
ATOM     13  C   LIG    1       -7.186  -3.473   0.051  0.00  0.00    -0.070 A 
ATOM     14  C   LIG    1       -7.689  -2.810   1.157  0.00  0.00    +0.010 A 
ATOM     15  C   LIG    1       -7.771  -1.433   1.162  0.00  0.00    +0.040 A 
ATOM     16  C   LIG    1       -7.344  -0.708   0.048  0.00  0.00    -0.080 A 
ATOM     17  C   LIG    1       -6.842  -1.383  -1.067  0.00  0.00    +0.040 A 
ATOM     18  C   LIG    1       -6.760  -2.760  -1.056  0.00  0.00    +0.010 A 
ENDBRANCH   1  16
BRANCH   2  19
ATOM     19  C   LIG    1       -4.938   0.934  -0.049  0.00  0.00    +0.450 C 
ATOM     20  O   LIG    1       -4.386   0.758  -1.120  0.00  0.00    -0.440 OA
BRANCH  19  21
ATOM     21  C   LIG    1       -4.279   0.522   1.190  0.00  0.00    -0.100 C 
ATOM     22  C   LIG    1       -3.109  -0.151   1.141  0.00  0.00    +0.140 C 
BRANCH  22  23
ATOM     23  C   LIG    1       -2.446  -0.565   2.387  0.00  0.00    -0.080 A 
ATOM     24  C   LIG    1       -3.026  -0.268   3.625  0.00  0.00    +0.030 A 
ATOM     25  C   LIG    1       -2.395  -0.654   4.788  0.00  0.00    +0.010 A 
ATOM     26  C   LIG    1       -1.194  -1.339   4.734  0.00  0.00    +0.030 A 
ATOM     27  C   LIG    1       -0.616  -1.642   3.513  0.00  0.00    -0.090 A 
ATOM     28  C   LIG    1        0.693  -2.389   3.465  0.00  0.00    +0.090 C 
ATOM     29  C   LIG    1       -1.234  -1.263   2.340  0.00  0.00    +0.040 A 
ENDBRANCH  22  23
ENDBRANCH  19  21
ENDBRANCH   2  19
TORSDOF 4
