REMARK  Name = ZINCpe000000Yz17.0
REMARK                            x       y       z     vdW  Elec       q    Type
REMARK                         _______ _______ _______ _____ _____    ______ ____
ROOT
ATOM      1  C   LIG    1        2.340   5.233  -0.059  0.00  0.00    +0.520 C 
ATOM      2  N   LIG    1        2.334   3.891  -0.184  0.00  0.00    -0.690 N 
ATOM      3  H   LIG    1        3.169   3.411  -0.299  0.00  0.00    +0.420 HD
ATOM      4  O   LIG    1        1.308   5.824   0.180  0.00  0.00    -0.480 OA
ENDROOT
BRANCH   2   5
ATOM      5  C   LIG    1        1.123   3.191  -0.148  0.00  0.00    +0.250 A 
ATOM      6  C   LIG    1        0.040   3.708   0.551  0.00  0.00    +0.010 A 
ATOM      7  C   LIG    1       -1.153   3.014   0.585  0.00  0.00    +0.110 A 
ATOM      8  C   LIG    1       -1.272   1.807  -0.081  0.00  0.00    -0.020 A 
ATOM      9  C   LIG    1       -0.194   1.287  -0.773  0.00  0.00    +0.160 A 
ATOM     10  C   LIG    1        1.002   1.976  -0.810  0.00  0.00    -0.690 A 
BRANCH  10  11
ATOM     11  S   LIG    1        2.373   1.315  -1.698  0.00  0.00    +2.470 S 
ATOM     12  O   LIG    1        1.895   0.078  -2.211  0.00  0.00    -0.880 OA
ATOM     13  O   LIG    1        3.446   1.356  -0.767  0.00  0.00    -0.890 OA
BRANCH  11  14
ATOM     14  C   LIG    1        2.653   2.497  -3.045  0.00  0.00    -0.050 C 
ATOM     15  F   LIG    1        2.937   3.757  -2.508  0.00  0.00    -0.170 F 
ATOM     16  F   LIG    1        1.505   2.577  -3.841  0.00  0.00    -0.160 F 
ENDBRANCH  11  14
ENDBRANCH  10  11
ENDBRANCH   2   5
BRANCH   1  17
ATOM     17  C   LIG    1        3.628   5.999  -0.216  0.00  0.00    +0.230 C 
BRANCH  17  21
ATOM     18  C   LIG    1        3.432  10.178  -1.099  0.00  0.00    -0.010 C 
ATOM     19  C   LIG    1        2.167   9.322  -1.214  0.00  0.00    +0.070 C 
ATOM     20  C   LIG    1        2.563   7.851  -1.354  0.00  0.00    +0.170 C 
ATOM     21  N   LIG    1        3.348   7.440  -0.183  0.00  0.00    -0.520 NA
ATOM     22  C   LIG    1        4.591   8.216  -0.079  0.00  0.00    +0.180 C 
ATOM     23  C   LIG    1        4.256   9.698   0.099  0.00  0.00    +0.040 C 
BRANCH  18  27
ATOM     24  N   LIG    1        4.005  12.562  -0.776  0.00  0.00    -0.860 N 
ATOM     25  H   LIG    1        3.757  13.491  -0.649  0.00  0.00    +0.400 HD
ATOM     26  H   LIG    1        4.941  12.310  -0.811  0.00  0.00    +0.400 HD
ATOM     27  C   LIG    1        3.048  11.621  -0.902  0.00  0.00    +0.520 C 
ATOM     28  O   LIG    1        1.878  11.937  -0.858  0.00  0.00    -0.540 OA
ENDBRANCH  18  27
ENDBRANCH  17  21
ENDBRANCH   1  17
TORSDOF 6
