REMARK  Name = ZINCpe000000TaAF.0
REMARK                            x       y       z     vdW  Elec       q    Type
REMARK                         _______ _______ _______ _____ _____    ______ ____
ROOT
ATOM      1  C   LIG    1        4.018   5.432  -0.580  0.00  0.00    +0.140 A 
ATOM      2  N   LIG    1        3.962   5.384   0.717  0.00  0.00    -0.360 NA
ATOM      3  O   LIG    1        2.964   4.793   1.073  0.00  0.00    +0.090 OA
ATOM      4  C   LIG    1        2.273   4.386   0.004  0.00  0.00    +0.180 A 
ATOM      5  N   LIG    1        2.934   4.792  -1.054  0.00  0.00    -0.460 NA
ENDROOT
BRANCH   1   6
ATOM      6  C   LIG    1        5.098   6.085  -1.403  0.00  0.00    +0.480 C 
BRANCH   6  12
ATOM      7  C   LIG    1        3.492  10.421  -0.578  0.00  0.00    +0.090 C 
ATOM      8  C   LIG    1        4.508   9.750  -1.504  0.00  0.00    +0.120 C 
ATOM      9  N   LIG    1        3.845   9.231  -2.712  0.00  0.00    -0.720 N 
ATOM     10  H   LIG    1        3.364   9.748  -3.377  0.00  0.00    +0.440 HD
ATOM     11  C   LIG    1        4.040   7.900  -2.716  0.00  0.00    +0.700 C 
ATOM     12  N   LIG    1        4.742   7.483  -1.656  0.00  0.00    -0.580 N 
ATOM     13  O   LIG    1        3.622   7.158  -3.583  0.00  0.00    -0.520 OA
ATOM     14  C   LIG    1        5.623  10.730  -1.877  0.00  0.00    +0.090 C 
ATOM     15  C   LIG    1        5.085   8.509  -0.852  0.00  0.00    +0.530 C 
ATOM     16  O   LIG    1        5.723   8.452   0.177  0.00  0.00    -0.450 OA
ENDBRANCH   6  12
ENDBRANCH   1   6
BRANCH   4  17
ATOM     17  C   LIG    1        0.979   3.615   0.012  0.00  0.00    +0.220 C 
BRANCH  17  18
ATOM     18  C   LIG    1        1.278   2.115   0.001  0.00  0.00    +0.070 C 
BRANCH  18  19
ATOM     19  C   LIG    1       -0.016   1.344   0.009  0.00  0.00    +0.520 C 
ATOM     20  N   LIG    1        0.002  -0.004   0.002  0.00  0.00    -0.720 N 
ATOM     21  H   LIG    1        0.849  -0.478  -0.009  0.00  0.00    +0.400 HD
ATOM     22  O   LIG    1       -1.075   1.936   0.018  0.00  0.00    -0.530 OA
BRANCH  20  23
ATOM     23  C   LIG    1       -1.256  -0.754   0.010  0.00  0.00    +0.230 C 
ATOM     24  C   LIG    1       -1.734  -0.969   1.461  0.00  0.00    +0.010 C 
ATOM     25  C   LIG    1       -2.348  -2.392   1.451  0.00  0.00    +0.010 C 
ATOM     26  C   LIG    1       -1.395  -3.169   0.510  0.00  0.00    +0.010 C 
ATOM     27  C   LIG    1       -1.041  -2.152  -0.595  0.00  0.00    +0.020 C 
ENDBRANCH  20  23
ENDBRANCH  18  19
ENDBRANCH  17  18
ENDBRANCH   4  17
TORSDOF 6
