REMARK  Name = ZINCpk00000y6vPj.0
REMARK                            x       y       z     vdW  Elec       q    Type
REMARK                         _______ _______ _______ _____ _____    ______ ____
ROOT
ATOM      1  O   LIG    1       -7.557   0.619  -2.937  0.00  0.00    -0.450 OA
ATOM      2  C   LIG    1       -7.087   0.327  -4.016  0.00  0.00    +0.530 C 
ATOM      3  C   LIG    1       -7.703  -0.573  -5.069  0.00  0.00    +0.300 C 
ATOM      4  N   LIG    1       -6.707  -0.568  -6.154  0.00  0.00    -0.620 N 
ATOM      5  C   LIG    1       -5.699   0.225  -5.748  0.00  0.00    +0.700 C 
ATOM      6  O   LIG    1       -4.707   0.452  -6.413  0.00  0.00    -0.540 OA
ATOM      7  N   LIG    1       -5.909   0.733  -4.528  0.00  0.00    -0.570 N 
ENDROOT
BRANCH   4   8
ATOM      8  C   LIG    1       -6.798  -1.283  -7.430  0.00  0.00    +0.390 C 
BRANCH   8   9
ATOM      9  C   LIG    1       -7.471  -0.403  -8.452  0.00  0.00    -0.130 A 
ATOM     10  C   LIG    1       -8.845  -0.443  -8.601  0.00  0.00    +0.060 A 
ATOM     11  C   LIG    1       -9.463   0.368  -9.534  0.00  0.00    -0.020 A 
ATOM     12  C   LIG    1       -8.706   1.213 -10.326  0.00  0.00    +0.110 A 
ATOM     13  C   LIG    1       -7.329   1.249 -10.180  0.00  0.00    -0.020 A 
ATOM     14  F   LIG    1       -9.309   2.002 -11.242  0.00  0.00    -0.140 F 
ATOM     15  C   LIG    1       -6.713   0.441  -9.243  0.00  0.00    +0.080 A 
ENDBRANCH   8   9
ENDBRANCH   4   8
BRANCH   7  16
ATOM     16  C   LIG    1       -4.975   1.626  -3.837  0.00  0.00    +0.340 C 
BRANCH  16  17
ATOM     17  C   LIG    1       -3.998   0.795  -3.002  0.00  0.00    +0.160 C 
ATOM     18  C   LIG    1       -3.025   1.727  -2.276  0.00  0.00    +0.170 C 
ATOM     19  N   LIG    1       -2.139   0.929  -1.417  0.00  0.00    -0.500 NA
ATOM     20  C   LIG    1       -2.919   0.154  -0.441  0.00  0.00    +0.150 C 
ATOM     21  C   LIG    1       -3.893  -0.762  -1.186  0.00  0.00    +0.230 C 
ATOM     22  O   LIG    1       -4.725   0.028  -2.039  0.00  0.00    -0.370 OA
BRANCH  19  23
ATOM     23  C   LIG    1       -1.150   1.781  -0.743  0.00  0.00    +0.140 C 
ATOM     24  C   LIG    1       -0.013   1.086   0.008  0.00  0.00    +0.030 C 
ATOM     25  C   LIG    1       -1.136   1.773   0.788  0.00  0.00    -0.020 C 
ENDBRANCH  19  23
ENDBRANCH  16  17
ENDBRANCH   7  16
TORSDOF 5
