REMARK  Name = ZINCtj00001n1k5E.1
REMARK                            x       y       z     vdW  Elec       q    Type
REMARK                         _______ _______ _______ _____ _____    ______ ____
ROOT
ATOM      1  N   LIG    1        2.428  -5.762   1.245  0.00  0.00    -0.720 N 
ATOM      2  H   LIG    1        2.172  -6.397   0.558  0.00  0.00    +0.400 HD
ATOM      3  C   LIG    1        2.153  -4.452   1.088  0.00  0.00    +0.520 C 
ATOM      4  O   LIG    1        2.474  -3.658   1.947  0.00  0.00    -0.520 OA
ENDROOT
BRANCH   1   9
ATOM      5  N   LIG    1        4.516  -8.015   3.368  0.00  0.00    -0.450 N 
ATOM      6  C   LIG    1        3.547  -8.294   4.436  0.00  0.00    +0.170 C 
ATOM      7  C   LIG    1        2.808  -7.005   4.804  0.00  0.00    +0.040 C 
ATOM      8  C   LIG    1        2.090  -6.462   3.565  0.00  0.00    +0.000 C 
ATOM      9  C   LIG    1        3.115  -6.227   2.453  0.00  0.00    +0.250 C 
ATOM     10  C   LIG    1        3.845  -7.538   2.153  0.00  0.00    +0.180 C 
BRANCH   5  14
ATOM     11  C   LIG    1        7.566 -11.847   3.917  0.00  0.00    +0.360 C 
ATOM     12  N   LIG    1        6.662 -10.854   3.333  0.00  0.00    -0.370 N 
ATOM     13  C   LIG    1        6.060  -9.831   3.995  0.00  0.00    +0.220 A 
ATOM     14  C   LIG    1        5.307  -9.148   3.097  0.00  0.00    -0.050 A 
ATOM     15  C   LIG    1        5.460  -9.768   1.848  0.00  0.00    +0.200 A 
ATOM     16  N   LIG    1        6.270 -10.786   1.990  0.00  0.00    -0.280 NA
ENDBRANCH   5  14
ENDBRANCH   1   9
BRANCH   3  17
ATOM     17  C   LIG    1        1.447  -3.974  -0.154  0.00  0.00    +0.230 C 
BRANCH  17  18
ATOM     18  N   LIG    1        1.399  -2.505  -0.156  0.00  0.00    -0.520 NA
ATOM     19  C   LIG    1        2.747  -1.935  -0.286  0.00  0.00    +0.220 C 
ATOM     20  C   LIG    1        2.660  -0.408  -0.224  0.00  0.00    +0.280 C 
ATOM     21  N   LIG    1        1.797   0.078  -1.308  0.00  0.00    -0.390 N 
ATOM     22  C   LIG    1        0.448  -0.481  -1.150  0.00  0.00    +0.270 C 
ATOM     23  H   LIG    1        2.178  -0.211  -2.196  0.00  0.00    +0.420 HD
ATOM     24  C   LIG    1        0.517  -2.008  -1.220  0.00  0.00    +0.210 C 
BRANCH  21  25
ATOM     25  C   LIG    1        1.728   1.544  -1.259  0.00  0.00    +0.330 C 
BRANCH  25  26
ATOM     26  C   LIG    1        0.944   2.050  -2.442  0.00  0.00    -0.160 A 
ATOM     27  C   LIG    1        1.595   2.357  -3.623  0.00  0.00    +0.040 A 
ATOM     28  C   LIG    1        0.875   2.817  -4.709  0.00  0.00    +0.030 A 
ATOM     29  C   LIG    1       -0.495   2.979  -4.613  0.00  0.00    +0.060 A 
ATOM     30  C   LIG    1       -1.145   2.678  -3.431  0.00  0.00    +0.030 A 
ATOM     31  C   LIG    1       -0.426   2.214  -2.345  0.00  0.00    +0.030 A 
ENDBRANCH  25  26
ENDBRANCH  21  25
ENDBRANCH  17  18
ENDBRANCH   3  17
TORSDOF 6
