REMARK  Name = ZINCvU0000000HFr.0
REMARK                            x       y       z     vdW  Elec       q    Type
REMARK                         _______ _______ _______ _____ _____    ______ ____
ROOT
ATOM      1  C   LIG    1        0.070  -6.421   3.847  0.00  0.00    +0.280 A 
ATOM      2  N   LIG    1        0.273  -6.136   2.582  0.00  0.00    -0.270 NA
ATOM      3  N   LIG    1        0.218  -4.864   2.404  0.00  0.00    -0.280 NA
ATOM      4  C   LIG    1       -0.015  -4.258   3.546  0.00  0.00    +0.150 A 
ATOM      5  N   LIG    1       -0.121  -5.228   4.504  0.00  0.00    -0.450 N 
ENDROOT
BRANCH   1   8
ATOM      6  C   LIG    1        0.243  -9.148   2.311  0.00  0.00    +0.200 C 
ATOM      7  C   LIG    1        0.124  -8.963   3.802  0.00  0.00    +0.070 A 
ATOM      8  C   LIG    1        0.051  -7.770   4.452  0.00  0.00    -0.140 A 
ATOM      9  C   LIG    1       -0.047  -8.101   5.880  0.00  0.00    -0.050 A 
ATOM     10  C   LIG    1       -0.031  -9.442   5.952  0.00  0.00    +0.190 A 
ATOM     11  O   LIG    1        0.074  -9.946   4.713  0.00  0.00    -0.170 OA
ENDBRANCH   1   8
BRANCH   4  12
ATOM     12  S   LIG    1       -0.170  -2.521   3.794  0.00  0.00    +0.030 S 
BRANCH  12  13
ATOM     13  C   LIG    1        0.089  -1.937   2.101  0.00  0.00    +0.130 C 
BRANCH  13  14
ATOM     14  C   LIG    1       -0.004  -0.410   2.068  0.00  0.00    -0.300 C 
BRANCH  14  15
ATOM     15  S   LIG    1        0.256   0.175   0.371  0.00  0.00    +2.510 S 
ATOM     16  O   LIG    1        1.599  -0.048  -0.034  0.00  0.00    -0.920 OA
ATOM     17  O   LIG    1       -0.833  -0.205  -0.460  0.00  0.00    -0.920 OA
BRANCH  15  18
ATOM     18  C   LIG    1        0.123   1.929   0.485  0.00  0.00    -0.660 A 
ATOM     19  C   LIG    1       -1.105   2.541   0.319  0.00  0.00    +0.140 A 
ATOM     20  C   LIG    1       -1.211   3.916   0.413  0.00  0.00    +0.020 A 
ATOM     21  C   LIG    1       -0.086   4.680   0.664  0.00  0.00    +0.020 A 
ATOM     22  C   LIG    1        1.144   4.067   0.826  0.00  0.00    +0.020 A 
ATOM     23 CL   LIG    1       -0.216   6.408   0.775  0.00  0.00    -0.050 Cl
ATOM     24  C   LIG    1        1.248   2.692   0.737  0.00  0.00    +0.140 A 
ENDBRANCH  15  18
ENDBRANCH  14  15
ENDBRANCH  13  14
ENDBRANCH  12  13
ENDBRANCH   4  12
BRANCH   5  25
ATOM     25  C   LIG    1       -0.383  -5.035   5.933  0.00  0.00    +0.360 C 
BRANCH  25  26
ATOM     26  C   LIG    1       -1.870  -5.000   6.170  0.00  0.00    -0.130 A 
ATOM     27  C   LIG    1       -2.563  -3.811   6.042  0.00  0.00    +0.040 A 
ATOM     28  C   LIG    1       -3.928  -3.779   6.255  0.00  0.00    +0.010 A 
ATOM     29  C   LIG    1       -4.599  -4.935   6.607  0.00  0.00    +0.030 A 
ATOM     30  C   LIG    1       -3.906  -6.124   6.741  0.00  0.00    +0.010 A 
ATOM     31  C   LIG    1       -2.542  -6.156   6.522  0.00  0.00    +0.030 A 
ENDBRANCH  25  26
ENDBRANCH   5  25
TORSDOF 8
