REMARK  Name = ZINCpk00000FdGU8.0
REMARK                            x       y       z     vdW  Elec       q    Type
REMARK                         _______ _______ _______ _____ _____    ______ ____
ROOT
ATOM      1  C   LIG    1        1.256   1.968   0.001  0.00  0.00    -0.140 A 
ATOM      2  C   LIG    1        1.240   3.364   0.003  0.00  0.00    +0.050 A 
ATOM      3  C   LIG    1        2.429   4.064   0.001  0.00  0.00    +0.010 A 
ATOM      4  C   LIG    1        3.635   3.385  -0.014  0.00  0.00    -0.060 A 
ATOM      5  C   LIG    1        3.657   2.002  -0.022  0.00  0.00    +0.010 A 
ATOM      6  C   LIG    1        2.475   1.290  -0.015  0.00  0.00    +0.090 A 
ENDROOT
BRANCH   1   9
ATOM      7  N   LIG    1       -1.191   1.869   0.018  0.00  0.00    -0.730 N 
ATOM      8  H   LIG    1       -1.204   2.839   0.023  0.00  0.00    +0.400 HD
ATOM      9  C   LIG    1       -0.014   1.211   0.009  0.00  0.00    +0.560 C 
ATOM     10  O   LIG    1        0.002  -0.004   0.002  0.00  0.00    -0.530 OA
BRANCH   7  11
ATOM     11  C   LIG    1       -2.449   1.120   0.020  0.00  0.00    +0.260 C 
BRANCH  11  12
ATOM     12  C   LIG    1       -3.626   2.098   0.031  0.00  0.00    +0.100 C 
BRANCH  12  13
ATOM     13  C   LIG    1       -4.940   1.315   0.033  0.00  0.00    +0.030 C 
ATOM     14  N   LIG    1       -4.963  -0.015   0.646  0.00  0.00    -0.120 NA
ATOM     15  N   LIG    1       -4.969  -0.008  -0.595  0.00  0.00    -0.120 NA
BRANCH  13  16
ATOM     16  C   LIG    1       -6.223   2.148   0.043  0.00  0.00    +0.120 C 
BRANCH  16  17
ATOM     17  C   LIG    1       -7.437   1.216   0.044  0.00  0.00    +0.160 C 
BRANCH  17  19
ATOM     18  C   LIG    1       -9.655   2.658   0.062  0.00  0.00    +0.030 C 
ATOM     19  C   LIG    1       -8.671   2.018   0.054  0.00  0.00    -0.190 C 
ENDBRANCH  17  19
ENDBRANCH  16  17
ENDBRANCH  13  16
ENDBRANCH  12  13
ENDBRANCH  11  12
ENDBRANCH   7  11
ENDBRANCH   1   9
BRANCH   4  20
ATOM     20  C   LIG    1        4.930   4.156  -0.022  0.00  0.00    +0.090 C 
BRANCH  20  21
ATOM     21  C   LIG    1        5.354   4.425  -1.467  0.00  0.00    +0.280 C 
BRANCH  21  22
ATOM     22  N   LIG    1        6.613   5.175  -1.474  0.00  0.00    -1.120 NA
ATOM     23  H   LIG    1        6.926   5.605  -0.664  0.00  0.00    +0.420 HD
BRANCH  22  24
ATOM     24  S   LIG    1        7.502   5.287  -2.867  0.00  0.00    +2.610 S 
ATOM     25  O   LIG    1        7.631   3.943  -3.310  0.00  0.00    -0.950 OA
ATOM     26  O   LIG    1        8.642   6.049  -2.495  0.00  0.00    -0.960 OA
ATOM     27  C   LIG    1        6.448   6.231  -4.002  0.00  0.00    -0.280 C 
ENDBRANCH  22  24
ENDBRANCH  21  22
ENDBRANCH  20  21
ENDBRANCH   4  20
TORSDOF 11
