REMARK  Name = ZINCnE000001TTgi.0
REMARK                            x       y       z     vdW  Elec       q    Type
REMARK                         _______ _______ _______ _____ _____    ______ ____
ROOT
ATOM      1  C   LIG    1        0.493   4.116   1.034  0.00  0.00    -0.040 C 
ATOM      2  C   LIG    1        1.287   3.533  -0.138  0.00  0.00    +0.040 C 
ATOM      3  C   LIG    1        1.346   2.010   0.000  0.00  0.00    +0.180 C 
ATOM      4  N   LIG    1       -0.018   1.465   0.010  0.00  0.00    -0.500 NA
ATOM      5  C   LIG    1       -0.785   1.974   1.154  0.00  0.00    +0.150 C 
ATOM      6  C   LIG    1       -0.907   3.496   1.050  0.00  0.00    +0.040 C 
ENDROOT
BRANCH   1   8
ATOM      7  O   LIG    1        0.366   6.100  -0.237  0.00  0.00    -0.450 OA
ATOM      8  C   LIG    1        0.380   5.610   0.872  0.00  0.00    +0.400 C 
BRANCH   8   9
ATOM      9  C   LIG    1        0.288   6.474   2.059  0.00  0.00    -0.160 A 
ATOM     10  C   LIG    1        0.298   5.912   3.340  0.00  0.00    +0.060 A 
ATOM     11  C   LIG    1        0.216   6.729   4.448  0.00  0.00    +0.000 A 
ATOM     12  C   LIG    1        0.113   8.101   4.295  0.00  0.00    +0.030 A 
ATOM     13  C   LIG    1        0.097   8.664   3.031  0.00  0.00    +0.000 A 
ATOM     14  C   LIG    1        0.183   7.861   1.913  0.00  0.00    +0.070 A 
ENDBRANCH   8   9
ENDBRANCH   1   8
BRANCH   4  15
ATOM     15  C   LIG    1        0.002  -0.004   0.002  0.00  0.00    +0.110 C 
BRANCH  15  16
ATOM     16  C   LIG    1       -1.405  -0.526   0.137  0.00  0.00    -0.060 A 
ATOM     17  C   LIG    1       -2.443   0.040  -0.482  0.00  0.00    -0.010 A 
ATOM     18  S   LIG    1       -3.914  -0.842  -0.092  0.00  0.00    +0.050 S 
ATOM     19  C   LIG    1       -3.012  -1.956   0.926  0.00  0.00    -0.060 A 
ATOM     20  C   LIG    1       -1.720  -1.626   0.916  0.00  0.00    +0.020 A 
ENDBRANCH  15  16
BRANCH  15  21
ATOM     21  C   LIG    1        0.597  -0.491  -1.294  0.00  0.00    +0.510 C 
ATOM     22  O   LIG    1        0.705  -1.688  -1.503  0.00  0.00    -0.690 OA
ATOM     23  O   LIG    1        0.970   0.311  -2.133  0.00  0.00    -0.670 OA
ENDBRANCH  15  21
ENDBRANCH   4  15
TORSDOF 5
