REMARK  Name = ZINCrD000000C81w.0
REMARK                            x       y       z     vdW  Elec       q    Type
REMARK                         _______ _______ _______ _____ _____    ______ ____
ROOT
ATOM      1  C   LIG    1       -3.172   5.109   0.138  0.00  0.00    +0.120 A 
ATOM      2  C   LIG    1       -2.104   5.996   0.136  0.00  0.00    +0.080 A 
ATOM      3  C   LIG    1       -2.337   7.354   0.231  0.00  0.00    +0.020 A 
ATOM      4  C   LIG    1       -3.631   7.830   0.340  0.00  0.00    +0.140 A 
ATOM      5  C   LIG    1       -4.696   6.948   0.348  0.00  0.00    -0.650 A 
ATOM      6  C   LIG    1       -4.471   5.590   0.247  0.00  0.00    +0.090 A 
ENDROOT
BRANCH   1   9
ATOM      7  O   LIG    1       -1.232   4.052  -1.347  0.00  0.00    -0.510 OA
ATOM      8  C   LIG    1       -1.906   3.276  -0.696  0.00  0.00    +0.580 C 
ATOM      9  N   LIG    1       -2.941   3.733   0.037  0.00  0.00    -0.670 N 
ATOM     10  H   LIG    1       -3.525   3.108   0.494  0.00  0.00    +0.410 HD
BRANCH   8  11
ATOM     11  C   LIG    1       -1.592   1.838  -0.710  0.00  0.00    -0.150 A 
ATOM     12  C   LIG    1       -2.294   0.918  -0.002  0.00  0.00    -0.050 A 
ATOM     13  S   LIG    1       -1.662  -0.644  -0.245  0.00  0.00    +0.200 S 
ATOM     14  C   LIG    1       -0.409  -0.057  -1.326  0.00  0.00    -0.200 A 
ATOM     15  C   LIG    1        0.632  -0.924  -2.005  0.00  0.00    +0.110 C 
ATOM     16  C   LIG    1        1.256  -0.133  -3.158  0.00  0.00    +0.020 C 
ATOM     17  C   LIG    1        1.689   1.243  -2.642  0.00  0.00    +0.020 C 
ATOM     18  C   LIG    1        0.445   2.084  -2.346  0.00  0.00    +0.120 C 
ATOM     19  C   LIG    1       -0.497   1.273  -1.472  0.00  0.00    -0.050 A 
ENDBRANCH   8  11
ENDBRANCH   1   9
BRANCH   5  20
ATOM     20  S   LIG    1       -6.343   7.559   0.486  0.00  0.00    +2.690 S 
ATOM     21  O   LIG    1       -7.189   6.564  -0.073  0.00  0.00    -0.950 OA
ATOM     22  O   LIG    1       -6.313   8.903   0.024  0.00  0.00    -0.920 OA
BRANCH  20  23
ATOM     23  N   LIG    1       -6.706   7.629   2.100  0.00  0.00    -1.020 N 
ATOM     24  H   LIG    1       -7.402   7.061   2.466  0.00  0.00    +0.440 HD
BRANCH  23  25
ATOM     25  C   LIG    1       -6.023   8.488   2.920  0.00  0.00    +0.370 C 
ATOM     26  N   LIG    1       -5.081   9.274   2.529  0.00  0.00    -0.550 NA
ATOM     27  C   LIG    1       -4.535  10.079   3.628  0.00  0.00    +0.220 C 
ATOM     28  C   LIG    1       -5.575   9.969   4.767  0.00  0.00    +0.020 C 
ATOM     29  C   LIG    1       -6.270   8.634   4.405  0.00  0.00    +0.060 C 
ENDBRANCH  23  25
ENDBRANCH  20  23
ENDBRANCH   5  20
TORSDOF 5
