REMARK  Name = ZINCvU00000005tA.0
REMARK                            x       y       z     vdW  Elec       q    Type
REMARK                         _______ _______ _______ _____ _____    ______ ____
ROOT
ATOM      1  C   LIG    1       -6.908   2.428   3.434  0.00  0.00    +0.110 C 
ATOM      2  C   LIG    1       -7.679   3.626   2.876  0.00  0.00    +0.110 C 
ENDROOT
BRANCH   1   3
ATOM      3  C   LIG    1       -5.706   2.156   2.567  0.00  0.00    +0.460 A 
ATOM      4  N   LIG    1       -4.608   2.822   2.792  0.00  0.00    -0.550 NA
ATOM      5  C   LIG    1       -3.505   2.622   2.051  0.00  0.00    +0.540 A 
ATOM      6  C   LIG    1       -3.549   1.627   0.964  0.00  0.00    -0.210 A 
ATOM      7  C   LIG    1       -4.740   0.951   0.770  0.00  0.00    +0.050 A 
ATOM      8  S   LIG    1       -4.581  -0.180  -0.565  0.00  0.00    +0.200 S 
ATOM      9  C   LIG    1       -2.912   0.278  -0.847  0.00  0.00    -0.020 A 
ATOM     10  C   LIG    1       -2.519   1.214   0.019  0.00  0.00    +0.040 A 
ATOM     11  O   LIG    1       -2.484   3.253   2.275  0.00  0.00    -0.460 OA
ATOM     12  N   LIG    1       -5.809   1.238   1.593  0.00  0.00    -0.590 N 
ATOM     13  H   LIG    1       -6.648   0.769   1.465  0.00  0.00    +0.420 HD
BRANCH  10  14
ATOM     14  C   LIG    1       -1.157   1.788   0.017  0.00  0.00    -0.150 A 
ATOM     15  C   LIG    1       -0.013   1.076   0.008  0.00  0.00    +0.020 A 
ATOM     16  C   LIG    1        1.140   1.837   0.001  0.00  0.00    +0.000 A 
ATOM     17  C   LIG    1        0.945   3.158   0.010  0.00  0.00    -0.050 A 
ATOM     18  S   LIG    1       -0.778   3.506   0.028  0.00  0.00    +0.180 S 
ENDBRANCH  10  14
ENDBRANCH   1   3
BRANCH   1  19
ATOM     19  S   LIG    1       -7.984   0.972   3.449  0.00  0.00    +0.050 S 
BRANCH  19  24
ATOM     20  N   LIG    1      -10.272   0.788   5.035  0.00  0.00    -0.300 N 
ATOM     21  N   LIG    1      -10.920   1.618   5.966  0.00  0.00    -0.060 NA
ATOM     22  N   LIG    1      -10.232   2.705   6.040  0.00  0.00    -0.020 NA
ATOM     23  N   LIG    1       -9.216   2.646   5.257  0.00  0.00    -0.320 NA
ATOM     24  C   LIG    1       -9.190   1.494   4.621  0.00  0.00    +0.220 A 
BRANCH  20  29
ATOM     25  C   LIG    1      -11.840  -4.407   3.371  0.00  0.00    +0.110 C 
ATOM     26  C   LIG    1      -11.424  -3.028   3.813  0.00  0.00    -0.070 A 
ATOM     27  C   LIG    1      -10.828  -2.165   2.912  0.00  0.00    +0.050 A 
ATOM     28  C   LIG    1      -10.451  -0.898   3.312  0.00  0.00    +0.020 A 
ATOM     29  C   LIG    1      -10.659  -0.496   4.624  0.00  0.00    +0.110 A 
ATOM     30  C   LIG    1      -11.257  -1.365   5.527  0.00  0.00    +0.050 A 
ATOM     31  C   LIG    1      -11.637  -2.628   5.120  0.00  0.00    -0.070 A 
ATOM     32  C   LIG    1      -12.286  -3.572   6.099  0.00  0.00    +0.110 C 
ENDBRANCH  20  29
ENDBRANCH  19  24
ENDBRANCH   1  19
TORSDOF 5
