REMARK  Name = ZINCrg00000SjCjb.0
REMARK                            x       y       z     vdW  Elec       q    Type
REMARK                         _______ _______ _______ _____ _____    ______ ____
ROOT
ATOM      1  C   LIG    1        2.862   0.822  -1.441  0.00  0.00    +0.510 C 
ATOM      2  N   LIG    1        4.014   0.173  -1.701  0.00  0.00    -0.610 N 
ATOM      3  C   LIG    1        4.951  -0.354  -0.692  0.00  0.00    +0.250 C 
ATOM      4  C   LIG    1        5.717  -1.489  -1.416  0.00  0.00    +0.040 C 
ATOM      5  C   LIG    1        5.866  -0.902  -2.845  0.00  0.00    +0.050 C 
ATOM      6  C   LIG    1        4.543  -0.132  -3.039  0.00  0.00    +0.270 C 
ATOM      7  O   LIG    1        2.167   1.213  -2.354  0.00  0.00    -0.510 OA
ENDROOT
BRANCH   6   8
ATOM      8  C   LIG    1        4.804   1.148  -3.791  0.00  0.00    -0.080 A 
ATOM      9  C   LIG    1        5.348   2.235  -3.132  0.00  0.00    +0.040 A 
ATOM     10  C   LIG    1        5.590   3.414  -3.816  0.00  0.00    +0.020 A 
ATOM     11  C   LIG    1        5.285   3.501  -5.163  0.00  0.00    +0.070 A 
ATOM     12  O   LIG    1        5.518   4.657  -5.849  0.00  0.00    -0.320 OA
ATOM     13  C   LIG    1        6.553   4.603  -6.832  0.00  0.00    +0.230 C 
ATOM     14  C   LIG    1        6.019   4.061  -8.149  0.00  0.00    -0.020 C 
ATOM     15  C   LIG    1        5.562   2.615  -8.036  0.00  0.00    +0.230 C 
ATOM     16  O   LIG    1        4.444   2.504  -7.153  0.00  0.00    -0.320 OA
ATOM     17  C   LIG    1        4.740   2.409  -5.824  0.00  0.00    +0.070 A 
ATOM     18  C   LIG    1        4.504   1.230  -5.139  0.00  0.00    +0.030 A 
ENDBRANCH   6   8
BRANCH   1  19
ATOM     19  C   LIG    1        2.438   1.061  -0.015  0.00  0.00    +0.360 C 
BRANCH  19  24
ATOM     20  O   LIG    1       -2.231   3.773   0.044  0.00  0.00    -0.510 OA
ATOM     21  C   LIG    1       -1.183   3.154   0.030  0.00  0.00    +0.550 A 
ATOM     22  C   LIG    1       -1.189   1.738   0.017  0.00  0.00    -0.120 A 
ATOM     23  C   LIG    1       -0.013   1.076   0.008  0.00  0.00    +0.360 A 
ATOM     24  N   LIG    1        1.161   1.779   0.001  0.00  0.00    -0.520 N 
ATOM     25  C   LIG    1        1.154   3.125   0.008  0.00  0.00    +0.700 A 
ATOM     26  O   LIG    1        2.208   3.730   0.001  0.00  0.00    -0.540 OA
ATOM     27  N   LIG    1       -0.005   3.810   0.022  0.00  0.00    -0.660 N 
ATOM     28  H   LIG    1        0.008   4.780   0.028  0.00  0.00    +0.430 HD
ENDBRANCH  19  24
ENDBRANCH   1  19
TORSDOF 3
