REMARK  Name = ZINCtV000002Kzmp.0
REMARK                            x       y       z     vdW  Elec       q    Type
REMARK                         _______ _______ _______ _____ _____    ______ ____
ROOT
ATOM      1  C   LIG    1       -2.430   4.271   0.032  0.00  0.00    -0.100 A 
ATOM      2  C   LIG    1       -2.419   5.651   0.191  0.00  0.00    +0.070 A 
ATOM      3  C   LIG    1       -1.222   6.338   0.185  0.00  0.00    +0.040 A 
ATOM      4  C   LIG    1       -0.024   5.659   0.021  0.00  0.00    +0.030 A 
ATOM      5  C   LIG    1       -0.015   4.290  -0.132  0.00  0.00    +0.040 A 
ATOM      6  C   LIG    1       -1.218   3.581  -0.134  0.00  0.00    -0.080 A 
ENDROOT
BRANCH   6   7
ATOM      7  C   LIG    1       -1.216   2.116  -0.303  0.00  0.00    +0.550 C 
ATOM      8  N   LIG    1       -0.051   1.458  -0.462  0.00  0.00    -0.720 N 
ATOM      9  H   LIG    1        0.786   1.948  -0.469  0.00  0.00    +0.400 HD
ATOM     10  O   LIG    1       -2.266   1.502  -0.299  0.00  0.00    -0.510 OA
BRANCH   8  11
ATOM     11  C   LIG    1       -0.049   0.003  -0.630  0.00  0.00    +0.320 C 
BRANCH  11  12
ATOM     12  C   LIG    1        1.369  -0.482  -0.794  0.00  0.00    -0.110 A 
ATOM     13  C   LIG    1        1.927  -0.573  -2.055  0.00  0.00    +0.050 A 
ATOM     14  C   LIG    1        3.228  -1.013  -2.206  0.00  0.00    +0.030 A 
ATOM     15  C   LIG    1        3.969  -1.373  -1.094  0.00  0.00    -0.030 A 
ATOM     16  C   LIG    1        3.409  -1.286   0.168  0.00  0.00    +0.030 A 
ATOM     17 CL   LIG    1        5.602  -1.932  -1.283  0.00  0.00    -0.060 Cl
ATOM     18  C   LIG    1        2.109  -0.841   0.317  0.00  0.00    +0.040 A 
ENDBRANCH  11  12
ENDBRANCH   8  11
ENDBRANCH   6   7
BRANCH   1  19
ATOM     19  S   LIG    1       -3.957   3.391   0.038  0.00  0.00    +0.140 S 
BRANCH  19  24
ATOM     20  C   LIG    1       -8.075  -0.202   1.593  0.00  0.00    +0.150 C 
ATOM     21  C   LIG    1       -6.824   0.462   2.105  0.00  0.00    -0.170 A 
ATOM     22  C   LIG    1       -6.081   1.294   1.401  0.00  0.00    -0.070 A 
ATOM     23  C   LIG    1       -4.920   1.814   2.098  0.00  0.00    -0.160 A 
ATOM     24  C   LIG    1       -3.914   2.715   1.665  0.00  0.00    +0.220 A 
ATOM     25  N   LIG    1       -2.943   3.045   2.505  0.00  0.00    -0.530 NA
ATOM     26  C   LIG    1       -2.898   2.546   3.727  0.00  0.00    +0.520 A 
ATOM     27  N   LIG    1       -3.803   1.704   4.173  0.00  0.00    -0.500 NA
ATOM     28  C   LIG    1       -4.822   1.311   3.398  0.00  0.00    +0.100 A 
ATOM     29  C   LIG    1       -6.414   1.676  -0.019  0.00  0.00    +0.130 C 
ATOM     30  S   LIG    1       -6.160   0.216   3.710  0.00  0.00    +0.170 S 
ENDBRANCH  19  24
ENDBRANCH   1  19
TORSDOF 5
