REMARK  Name = ZINCpk00000eb6Oq.0
REMARK                            x       y       z     vdW  Elec       q    Type
REMARK                         _______ _______ _______ _____ _____    ______ ____
ROOT
ATOM      1  C   LIG    1       -1.444  -4.884  -2.489  0.00  0.00    +0.150 C 
ATOM      2  C   LIG    1       -2.172  -5.016  -1.176  0.00  0.00    +0.200 A 
ATOM      3  C   LIG    1       -1.535  -4.708  -0.010  0.00  0.00    -0.240 A 
ATOM      4  C   LIG    1       -2.236  -4.845   1.205  0.00  0.00    +0.540 A 
ATOM      5  N   LIG    1       -3.518  -5.268   1.170  0.00  0.00    -0.610 N 
ATOM      6  H   LIG    1       -4.021  -5.367   1.993  0.00  0.00    +0.430 HD
ATOM      7  C   LIG    1       -4.101  -5.559  -0.027  0.00  0.00    +0.460 A 
ATOM      8  O   LIG    1       -1.696  -4.583   2.268  0.00  0.00    -0.530 OA
ATOM      9  N   LIG    1       -3.437  -5.433  -1.156  0.00  0.00    -0.520 NA
ENDROOT
BRANCH   7  10
ATOM     10  C   LIG    1       -5.504  -6.027  -0.057  0.00  0.00    +0.130 A 
ATOM     11  C   LIG    1       -6.106  -6.327  -1.278  0.00  0.00    +0.060 A 
ATOM     12  C   LIG    1       -7.421  -6.763  -1.289  0.00  0.00    +0.070 A 
ATOM     13  C   LIG    1       -8.089  -6.885  -0.080  0.00  0.00    +0.010 A 
ATOM     14  C   LIG    1       -7.429  -6.568   1.095  0.00  0.00    +0.280 A 
ATOM     15  N   LIG    1       -6.178  -6.161   1.079  0.00  0.00    -0.470 NA
ENDBRANCH   7  10
BRANCH   3  16
ATOM     16  C   LIG    1       -0.104  -4.235  -0.021  0.00  0.00    +0.150 C 
BRANCH  16  17
ATOM     17  C   LIG    1       -0.073  -2.728  -0.013  0.00  0.00    +0.510 C 
ATOM     18  N   LIG    1        1.108  -2.079  -0.020  0.00  0.00    -0.660 N 
ATOM     19  H   LIG    1        1.938  -2.581  -0.031  0.00  0.00    +0.420 HD
ATOM     20  O   LIG    1       -1.111  -2.100   0.001  0.00  0.00    -0.460 OA
BRANCH  18  21
ATOM     21  C   LIG    1        1.137  -0.683  -0.013  0.00  0.00    +0.340 A 
ATOM     22  N   LIG    1        0.002  -0.004   0.002  0.00  0.00    -0.460 NA
ATOM     23  C   LIG    1       -0.016   1.316   0.009  0.00  0.00    +0.280 A 
ATOM     24  C   LIG    1        1.158   2.042   0.002  0.00  0.00    -0.050 A 
ATOM     25  C   LIG    1        2.373   1.371  -0.013  0.00  0.00    +0.070 A 
ATOM     26  C   LIG    1        2.362  -0.017  -0.021  0.00  0.00    +0.020 A 
BRANCH  26  27
ATOM     27  O   LIG    1        3.528  -0.716  -0.035  0.00  0.00    -0.490 OA
ATOM     28  H   LIG    1        3.857  -0.914  -0.923  0.00  0.00    +0.390 HD
ENDBRANCH  26  27
ENDBRANCH  18  21
ENDBRANCH  16  17
ENDBRANCH   3  16
TORSDOF 5
