REMARK  Name = ZINCnE000001NNSU.0
REMARK                            x       y       z     vdW  Elec       q    Type
REMARK                         _______ _______ _______ _____ _____    ______ ____
ROOT
ATOM      1  C   LIG    1        2.574   1.366  -0.108  0.00  0.00    +0.160 C 
ENDROOT
BRANCH   1   2
ATOM      2  C   LIG    1        1.260   1.861   0.442  0.00  0.00    -0.080 A 
ATOM      3  C   LIG    1        1.050   3.215   0.616  0.00  0.00    +0.100 A 
ATOM      4  C   LIG    1       -0.155   3.669   1.121  0.00  0.00    -0.020 A 
ATOM      5  C   LIG    1       -1.149   2.768   1.453  0.00  0.00    +0.010 A 
ATOM      6  C   LIG    1       -0.943   1.413   1.275  0.00  0.00    -0.040 A 
ATOM      7  C   LIG    1        0.265   0.958   0.774  0.00  0.00    +0.090 A 
ATOM      8  F   LIG    1        0.469  -0.367   0.605  0.00  0.00    -0.140 F 
ENDBRANCH   1   2
BRANCH   1  10
ATOM      9  C   LIG    1        2.197   2.521  -2.291  0.00  0.00    -0.010 C 
ATOM     10  C   LIG    1        2.451   1.170  -1.620  0.00  0.00    +0.180 C 
BRANCH  10  11
ATOM     11  O   LIG    1        1.363   0.287  -1.899  0.00  0.00    -0.570 OA
ATOM     12  H   LIG    1        0.506   0.606  -1.583  0.00  0.00    +0.360 HD
ENDBRANCH  10  11
ENDBRANCH   1  10
BRANCH   1  13
ATOM     13  N   LIG    1        3.622   2.350   0.173  0.00  0.00    -0.650 NA
BRANCH  13  14
ATOM     14  C   LIG    1        4.931   2.067  -0.135  0.00  0.00    +0.400 A 
ATOM     15  N   LIG    1        5.953   2.898  -0.062  0.00  0.00    -0.590 NA
ATOM     16  C   LIG    1        7.029   2.182  -0.456  0.00  0.00    +0.200 A 
ATOM     17  N   LIG    1        6.609   0.978  -0.749  0.00  0.00    -0.450 NA
ATOM     18  O   LIG    1        5.412   0.894  -0.572  0.00  0.00    -0.060 OA
BRANCH  16  19
ATOM     19  C   LIG    1        8.427   2.671  -0.544  0.00  0.00    +0.020 A 
ATOM     20  C   LIG    1        8.730   3.987  -0.202  0.00  0.00    +0.050 A 
ATOM     21  C   LIG    1       10.033   4.435  -0.280  0.00  0.00    -0.010 A 
ATOM     22  C   LIG    1       11.036   3.584  -0.708  0.00  0.00    -0.010 A 
ATOM     23  C   LIG    1       10.739   2.278  -1.055  0.00  0.00    -0.010 A 
ATOM     24  C   LIG    1        9.441   1.817  -0.975  0.00  0.00    +0.030 A 
ENDBRANCH  16  19
ENDBRANCH  13  14
ENDBRANCH   1  13
TORSDOF 6
