REMARK  Name = ZINCrH00000tj0yl.0
REMARK                            x       y       z     vdW  Elec       q    Type
REMARK                         _______ _______ _______ _____ _____    ______ ____
ROOT
ATOM      1  C   LIG    1       -3.722   2.112   0.202  0.00  0.00    +0.100 C 
ATOM      2  C   LIG    1       -2.406   1.379   0.151  0.00  0.00    -0.110 A 
ATOM      3  C   LIG    1       -2.388  -0.009   0.196  0.00  0.00    +0.060 A 
ATOM      4  C   LIG    1       -1.202  -0.703   0.123  0.00  0.00    +0.030 A 
ATOM      5  C   LIG    1        0.002  -0.004   0.002  0.00  0.00    +0.160 A 
ATOM      6  N   LIG    1        1.176  -0.647  -0.164  0.00  0.00    -0.540 NA
ATOM      7  C   LIG    1        2.305   0.007  -0.183  0.00  0.00    +0.500 A 
ATOM      8  C   LIG    1        3.546  -0.605  -0.697  0.00  0.00    -0.290 A 
ATOM      9  C   LIG    1        3.912  -1.933  -0.766  0.00  0.00    +0.450 A 
ATOM     10  N   LIG    1        5.163  -1.948  -1.293  0.00  0.00    -0.350 N 
ATOM     11  N   LIG    1        5.549  -0.626  -1.549  0.00  0.00    -0.290 NA
ATOM     12  C   LIG    1        4.571   0.180  -1.206  0.00  0.00    +0.150 A 
ATOM     13  C   LIG    1        4.581   1.673  -1.377  0.00  0.00    +0.130 C 
ATOM     14  C   LIG    1        4.690   2.362  -0.002  0.00  0.00    +0.060 C 
ATOM     15  C   LIG    1        3.549   1.778   0.879  0.00  0.00    +0.280 C 
ATOM     16  N   LIG    1        2.361   1.346   0.168  0.00  0.00    -0.560 N 
ATOM     17  C   LIG    1        1.275   2.123   0.001  0.00  0.00    +0.570 A 
ATOM     18  O   LIG    1        1.353   3.329  -0.146  0.00  0.00    -0.500 OA
ATOM     19  C   LIG    1       -0.017   1.411   0.010  0.00  0.00    -0.210 A 
ATOM     20  C   LIG    1       -1.230   2.093   0.059  0.00  0.00    +0.100 A 
ENDROOT
BRANCH  10  21
ATOM     21  C   LIG    1        5.936  -3.091  -1.538  0.00  0.00    +0.150 A 
ATOM     22  C   LIG    1        5.864  -4.178  -0.677  0.00  0.00    -0.020 A 
ATOM     23  C   LIG    1        6.623  -5.305  -0.925  0.00  0.00    +0.050 A 
ATOM     24  C   LIG    1        7.462  -5.348  -2.023  0.00  0.00    +0.010 A 
ATOM     25  C   LIG    1        7.540  -4.265  -2.880  0.00  0.00    +0.040 A 
ATOM     26  C   LIG    1        6.779  -3.137  -2.641  0.00  0.00    +0.030 A 
ENDBRANCH  10  21
BRANCH   9  27
ATOM     27  N   LIG    1        3.159  -3.025  -0.377  0.00  0.00    -0.820 N 
ATOM     28  H   LIG    1        3.519  -3.921  -0.471  0.00  0.00    +0.410 HD
ATOM     29  H   LIG    1        2.270  -2.895  -0.010  0.00  0.00    +0.430 HD
ENDBRANCH   9  27
TORSDOF 2
