REMARK  Name = ZINCqH0000033bNV.0
REMARK                            x       y       z     vdW  Elec       q    Type
REMARK                         _______ _______ _______ _____ _____    ______ ____
ROOT
ATOM      1  N   LIG    1        0.155   0.922   4.895  0.00  0.00    -0.610 N 
ATOM      2  C   LIG    1       -0.531   0.432   5.947  0.00  0.00    +0.520 C 
ATOM      3  O   LIG    1        0.011   0.323   7.027  0.00  0.00    -0.530 OA
ENDROOT
BRANCH   1   4
ATOM      4  C   LIG    1       -0.527   1.153   3.620  0.00  0.00    +0.230 C 
ATOM      5  C   LIG    1       -0.293   2.598   3.166  0.00  0.00    -0.010 C 
ATOM      6  C   LIG    1       -0.944   2.806   1.796  0.00  0.00    +0.220 C 
ATOM      7  O   LIG    1       -0.401   1.868   0.865  0.00  0.00    -0.370 OA
ATOM      8  C   LIG    1       -0.630   0.501   1.213  0.00  0.00    +0.120 C 
ATOM      9  C   LIG    1       -2.136   0.247   1.317  0.00  0.00    +0.020 C 
ATOM     10  C   LIG    1       -0.033  -0.407   0.136  0.00  0.00    +0.060 C 
ATOM     11  C   LIG    1        0.033   0.200   2.559  0.00  0.00    +0.000 C 
ENDBRANCH   1   4
BRANCH   2  12
ATOM     12  C   LIG    1       -1.971   0.020   5.781  0.00  0.00    -0.020 C 
ATOM     13  C   LIG    1       -2.865   1.263   5.807  0.00  0.00    +0.060 C 
ATOM     14  C   LIG    1       -4.330   0.834   5.702  0.00  0.00    +0.200 C 
ATOM     15  N   LIG    1       -4.664  -0.056   6.821  0.00  0.00    -0.470 N 
ATOM     16  C   LIG    1       -3.851  -1.278   6.788  0.00  0.00    +0.210 C 
ATOM     17  C   LIG    1       -2.372  -0.912   6.928  0.00  0.00    +0.070 C 
BRANCH  15  18
ATOM     18  C   LIG    1       -6.021  -0.360   6.828  0.00  0.00    +0.320 A 
ATOM     19  C   LIG    1       -6.957   0.668   6.858  0.00  0.00    -0.030 A 
ATOM     20  C   LIG    1       -8.304   0.352   6.864  0.00  0.00    +0.110 A 
ATOM     21  C   LIG    1       -8.671  -0.988   6.840  0.00  0.00    -0.120 A 
ATOM     22  C   LIG    1       -7.687  -1.958   6.811  0.00  0.00    +0.310 A 
ATOM     23 CL   LIG    1      -10.347  -1.439   6.847  0.00  0.00    -0.050 Cl
ATOM     24  N   LIG    1       -6.410  -1.625   6.800  0.00  0.00    -0.510 NA
ENDBRANCH  15  18
ENDBRANCH   2  12
BRANCH   1  26
ATOM     25  C   LIG    1        1.758   2.667   5.501  0.00  0.00    +0.020 C 
ATOM     26  C   LIG    1        1.583   1.223   5.028  0.00  0.00    +0.270 C 
ENDBRANCH   1  26
TORSDOF 4
