REMARK  Name = ZINCrD0000075drW.0
REMARK                            x       y       z     vdW  Elec       q    Type
REMARK                         _______ _______ _______ _____ _____    ______ ____
ROOT
ATOM      1  C   LIG    1        2.535   3.633  -0.003  0.00  0.00    -0.080 A 
ATOM      2  C   LIG    1        3.284   2.501  -0.017  0.00  0.00    +0.000 A 
ATOM      3  O   LIG    1        2.476   1.419  -0.015  0.00  0.00    -0.180 OA
ATOM      4  C   LIG    1        1.181   1.789   0.000  0.00  0.00    +0.070 A 
ATOM      5  C   LIG    1       -0.013   1.076   0.008  0.00  0.00    +0.030 A 
ATOM      6  C   LIG    1       -1.215   1.750   0.017  0.00  0.00    +0.060 A 
ATOM      7  C   LIG    1       -1.250   3.138   0.033  0.00  0.00    +0.010 A 
ATOM      8  C   LIG    1       -0.089   3.860   0.025  0.00  0.00    +0.070 A 
ATOM      9  C   LIG    1        1.139   3.196   0.008  0.00  0.00    -0.130 A 
ENDROOT
BRANCH   2  10
ATOM     10  C   LIG    1        4.753   2.459  -0.032  0.00  0.00    +0.620 C 
ATOM     11  N   LIG    1        5.393   1.273  -0.045  0.00  0.00    -0.640 N 
ATOM     12  C   LIG    1        4.994  -0.145  -0.042  0.00  0.00    +0.310 C 
ATOM     13  C   LIG    1        6.319  -0.452  -0.729  0.00  0.00    -0.130 C 
ATOM     14  C   LIG    1        6.315  -0.467  -2.261  0.00  0.00    +0.040 C 
ATOM     15  C   LIG    1        7.038  -1.790  -2.612  0.00  0.00    +0.210 C 
ATOM     16  O   LIG    1        6.865  -2.628  -1.447  0.00  0.00    -0.370 OA
ATOM     17  C   LIG    1        7.021  -1.747  -0.309  0.00  0.00    +0.230 C 
ATOM     18  C   LIG    1        6.798   0.829  -0.062  0.00  0.00    +0.310 C 
ATOM     19  O   LIG    1        5.391   3.494  -0.033  0.00  0.00    -0.500 OA
ENDBRANCH   2  10
BRANCH   1  20
ATOM     20  C   LIG    1        3.039   5.053  -0.000  0.00  0.00    +0.210 C 
BRANCH  20  21
ATOM     21  S   LIG    1        3.258   5.612   1.708  0.00  0.00    -0.010 S 
BRANCH  21  27
ATOM     22  C   LIG    1        4.116   7.950   3.831  0.00  0.00    +0.330 C 
ATOM     23  N   LIG    1        4.170   8.157   2.381  0.00  0.00    -0.450 N 
ATOM     24  C   LIG    1        4.570   9.303   1.732  0.00  0.00    +0.130 A 
ATOM     25  C   LIG    1        4.468   9.062   0.413  0.00  0.00    +0.150 A 
ATOM     26  N   LIG    1        4.025   7.805   0.246  0.00  0.00    -0.490 NA
ATOM     27  C   LIG    1        3.837   7.251   1.421  0.00  0.00    +0.190 A 
ENDBRANCH  21  27
ENDBRANCH  20  21
ENDBRANCH   1  20
TORSDOF 4
