REMARK  Name = ZINCrH000004mpA5.0
REMARK                            x       y       z     vdW  Elec       q    Type
REMARK                         _______ _______ _______ _____ _____    ______ ____
ROOT
ATOM      1  N   LIG    1       -3.778   2.198   0.135  0.00  0.00    -0.400 N 
ATOM      2  C   LIG    1       -4.619   1.122   0.213  0.00  0.00    +0.150 A 
ATOM      3  N   LIG    1       -3.888   0.044   0.037  0.00  0.00    -0.290 NA
ATOM      4  N   LIG    1       -2.659   0.368  -0.150  0.00  0.00    -0.240 NA
ATOM      5  C   LIG    1       -2.527   1.674  -0.105  0.00  0.00    +0.230 A 
ENDROOT
BRANCH   5   6
ATOM      6  C   LIG    1       -1.272   2.436  -0.275  0.00  0.00    -0.010 A 
ATOM      7  C   LIG    1       -1.234   3.543  -1.124  0.00  0.00    +0.050 A 
ATOM      8  C   LIG    1       -0.058   4.248  -1.281  0.00  0.00    +0.030 A 
ATOM      9  C   LIG    1        1.080   3.863  -0.596  0.00  0.00    +0.050 A 
ATOM     10  C   LIG    1        1.049   2.770   0.251  0.00  0.00    +0.030 A 
ATOM     11  C   LIG    1       -0.121   2.056   0.418  0.00  0.00    -0.000 A 
ATOM     12 CL   LIG    1       -0.158   0.684   1.482  0.00  0.00    -0.040 Cl
ENDBRANCH   5   6
BRANCH   1  16
ATOM     13  C   LIG    1       -4.793   6.225   0.529  0.00  0.00    +0.150 A 
ATOM     14  C   LIG    1       -5.260   5.495  -0.554  0.00  0.00    +0.010 A 
ATOM     15  C   LIG    1       -4.924   4.162  -0.685  0.00  0.00    +0.080 A 
ATOM     16  C   LIG    1       -4.119   3.553   0.267  0.00  0.00    +0.060 A 
ATOM     17  C   LIG    1       -3.656   4.282   1.354  0.00  0.00    +0.080 A 
ATOM     18  C   LIG    1       -3.988   5.616   1.482  0.00  0.00    -0.060 A 
BRANCH  13  20
ATOM     19  C   LIG    1       -4.609   8.227   1.799  0.00  0.00    +0.250 C 
ATOM     20  O   LIG    1       -5.124   7.537   0.658  0.00  0.00    -0.310 OA
ENDBRANCH  13  20
ENDBRANCH   1  16
BRANCH   2  21
ATOM     21  S   LIG    1       -6.356   1.171   0.503  0.00  0.00    +0.090 S 
BRANCH  21  22
ATOM     22  C   LIG    1       -6.730  -0.599   0.475  0.00  0.00    +0.110 C 
BRANCH  22  23
ATOM     23  C   LIG    1       -8.204  -0.805   0.709  0.00  0.00    +0.530 C 
ATOM     24  N   LIG    1       -8.716  -2.052   0.730  0.00  0.00    -0.610 N 
ATOM     25  C   LIG    1       -7.839  -3.207   0.525  0.00  0.00    +0.290 C 
ATOM     26  C   LIG    1      -10.149  -2.252   0.957  0.00  0.00    +0.290 C 
ATOM     27  O   LIG    1       -8.931   0.151   0.878  0.00  0.00    -0.520 OA
ENDBRANCH  22  23
ENDBRANCH  21  22
ENDBRANCH   2  21
TORSDOF 6
