REMARK  Name = ZINCpk000004MjA0.0
REMARK                            x       y       z     vdW  Elec       q    Type
REMARK                         _______ _______ _______ _____ _____    ______ ____
ROOT
ATOM      1  C   LIG    1        1.248   1.716  -0.001  0.00  0.00    +0.250 C 
ATOM      2  C   LIG    1        1.637   2.078   1.435  0.00  0.00    +0.050 C 
ATOM      3  C   LIG    1        1.865   0.794   2.236  0.00  0.00    +0.190 C 
ATOM      4  N   LIG    1        2.931   0.005   1.605  0.00  0.00    -0.490 N 
ATOM      5  C   LIG    1        2.560  -0.395   0.242  0.00  0.00    +0.170 C 
ATOM      6  C   LIG    1        2.352   0.854  -0.619  0.00  0.00    +0.190 C 
ENDROOT
BRANCH   4   7
ATOM      7  C   LIG    1        3.253  -1.098   2.375  0.00  0.00    +0.410 A 
ATOM      8  C   LIG    1        2.271  -2.030   2.742  0.00  0.00    -0.230 A 
ATOM      9  C   LIG    1        0.835  -2.170   2.507  0.00  0.00    -0.030 A 
ATOM     10  C   LIG    1        0.447  -3.294   3.129  0.00  0.00    +0.260 A 
ATOM     11  N   LIG    1        1.523  -3.881   3.742  0.00  0.00    -0.570 N 
ATOM     12  H   LIG    1        1.491  -4.705   4.255  0.00  0.00    +0.430 HD
ATOM     13  C   LIG    1        2.650  -3.136   3.526  0.00  0.00    +0.330 A 
ATOM     14  N   LIG    1        3.926  -3.253   3.887  0.00  0.00    -0.530 NA
ATOM     15  C   LIG    1        4.814  -2.354   3.520  0.00  0.00    +0.540 A 
ATOM     16  N   LIG    1        4.503  -1.305   2.780  0.00  0.00    -0.520 NA
ENDBRANCH   4   7
BRANCH   1  18
ATOM     17  C   LIG    1       -1.187   1.624   0.017  0.00  0.00    +0.530 C 
ATOM     18  N   LIG    1       -0.011   0.966   0.007  0.00  0.00    -0.720 N 
ATOM     19  H   LIG    1        0.002  -0.004   0.002  0.00  0.00    +0.400 HD
ATOM     20  O   LIG    1       -1.204   2.837   0.023  0.00  0.00    -0.540 OA
BRANCH  17  24
ATOM     21  C   LIG    1       -5.105  -0.403  -0.290  0.00  0.00    +0.050 C 
ATOM     22  C   LIG    1       -4.345   0.729  -0.984  0.00  0.00    -0.090 C 
ATOM     23  C   LIG    1       -3.732   1.748  -0.008  0.00  0.00    +0.060 C 
ATOM     24  C   LIG    1       -2.482   0.853   0.018  0.00  0.00    -0.030 C 
ATOM     25  C   LIG    1       -5.142   1.371  -2.120  0.00  0.00    +0.040 C 
ATOM     26  C   LIG    1       -2.903   0.353  -1.373  0.00  0.00    +0.050 C 
ENDBRANCH  17  24
ENDBRANCH   1  18
BRANCH   6  27
ATOM     27  O   LIG    1        1.971   0.465  -1.940  0.00  0.00    -0.560 OA
ATOM     28  H   LIG    1        2.626  -0.084  -2.392  0.00  0.00    +0.380 HD
ENDBRANCH   6  27
TORSDOF 4
