REMARK  Name = ZINCrH00000No4K6.0
REMARK                            x       y       z     vdW  Elec       q    Type
REMARK                         _______ _______ _______ _____ _____    ______ ____
ROOT
ATOM      1  C   LIG    1       -0.283  10.662  -0.180  0.00  0.00    +0.360 C 
ATOM      2  N   LIG    1        0.582   9.481  -0.156  0.00  0.00    -0.360 N 
ATOM      3  C   LIG    1        0.154   8.211  -0.056  0.00  0.00    +0.280 A 
ATOM      4  C   LIG    1        1.267   7.388  -0.066  0.00  0.00    -0.240 A 
ATOM      5  C   LIG    1        2.433   8.273  -0.176  0.00  0.00    +0.150 A 
ATOM      6  N   LIG    1        1.977   9.504  -0.232  0.00  0.00    -0.270 NA
ENDROOT
BRANCH   5   7
ATOM      7  C   LIG    1        3.855   7.856  -0.220  0.00  0.00    -0.010 A 
ATOM      8  C   LIG    1        4.283   6.758   0.524  0.00  0.00    +0.060 A 
ATOM      9  C   LIG    1        5.606   6.365   0.479  0.00  0.00    +0.030 A 
ATOM     10  C   LIG    1        6.510   7.070  -0.299  0.00  0.00    +0.080 A 
ATOM     11  O   LIG    1        7.820   6.690  -0.343  0.00  0.00    -0.320 OA
ATOM     12  C   LIG    1        8.275   6.160  -1.590  0.00  0.00    +0.230 C 
ATOM     13  C   LIG    1        8.685   7.278  -2.535  0.00  0.00    -0.020 C 
ATOM     14  C   LIG    1        7.511   8.159  -2.933  0.00  0.00    +0.230 C 
ATOM     15  O   LIG    1        6.992   8.855  -1.798  0.00  0.00    -0.320 OA
ATOM     16  C   LIG    1        6.090   8.169  -1.038  0.00  0.00    +0.070 A 
ATOM     17  C   LIG    1        4.767   8.565  -1.003  0.00  0.00    +0.060 A 
ENDBRANCH   5   7
BRANCH   4  18
ATOM     18  C   LIG    1        1.278   5.926   0.023  0.00  0.00    +0.250 C 
ATOM     19  C   LIG    1        0.174   5.261   0.469  0.00  0.00    -0.080 C 
BRANCH  19  20
ATOM     20  C   LIG    1        0.128   3.783   0.416  0.00  0.00    +0.190 A 
ATOM     21  C   LIG    1       -1.004   3.108   0.874  0.00  0.00    -0.040 A 
ATOM     22  C   LIG    1       -1.032   1.726   0.813  0.00  0.00    +0.070 A 
ATOM     23  C   LIG    1        0.075   1.062   0.306  0.00  0.00    -0.040 A 
ATOM     24  C   LIG    1        1.165   1.792  -0.131  0.00  0.00    +0.270 A 
ATOM     25  N   LIG    1        1.166   3.108  -0.067  0.00  0.00    -0.480 NA
ENDBRANCH  19  20
BRANCH  19  26
ATOM     26  C   LIG    1       -0.942   5.993   0.988  0.00  0.00    +0.270 C 
ATOM     27  N   LIG    1       -1.826   6.574   1.401  0.00  0.00    -0.430 NA
ENDBRANCH  19  26
ENDBRANCH   4  18
TORSDOF 4
