REMARK  Name = ZINCpk00000xI9xV.0
REMARK                            x       y       z     vdW  Elec       q    Type
REMARK                         _______ _______ _______ _____ _____    ______ ____
ROOT
ATOM      1  C   LIG    1        1.240   2.959  -0.086  0.00  0.00    -0.220 C 
ATOM      2  C   LIG    1        1.167   1.611  -0.113  0.00  0.00    +0.210 C 
ATOM      3  N   LIG    1       -0.033   0.967  -0.011  0.00  0.00    -0.650 N 
ATOM      4  H   LIG    1       -0.037  -0.002  -0.035  0.00  0.00    +0.430 HD
ATOM      5  C   LIG    1       -1.207   1.600   0.114  0.00  0.00    +0.710 C 
ATOM      6  N   LIG    1       -1.295   2.944   0.162  0.00  0.00    -0.710 N 
ATOM      7  H   LIG    1       -2.155   3.382   0.258  0.00  0.00    +0.440 HD
ATOM      8  O   LIG    1       -2.225   0.941   0.193  0.00  0.00    -0.550 OA
ATOM      9  C   LIG    1       -0.055   3.732   0.061  0.00  0.00    +0.390 C 
ENDROOT
BRANCH   9  10
ATOM     10  C   LIG    1       -0.185   4.650  -1.127  0.00  0.00    -0.220 A 
ATOM     11  C   LIG    1        0.099   5.953  -1.127  0.00  0.00    +0.030 A 
ATOM     12  C   LIG    1       -0.095   6.593  -2.339  0.00  0.00    +0.000 A 
ATOM     13  C   LIG    1       -0.545   5.812  -3.321  0.00  0.00    -0.030 A 
ATOM     14  S   LIG    1       -0.742   4.169  -2.725  0.00  0.00    +0.130 S 
ENDBRANCH   9  10
BRANCH   1  15
ATOM     15  C   LIG    1        2.482   3.627  -0.191  0.00  0.00    +0.540 C 
ATOM     16  O   LIG    1        3.025   4.062   0.808  0.00  0.00    -0.480 OA
BRANCH  15  17
ATOM     17  O   LIG    1        3.066   3.780  -1.397  0.00  0.00    -0.340 OA
BRANCH  17  19
ATOM     18  C   LIG    1        4.824   4.541  -2.871  0.00  0.00    +0.070 C 
ATOM     19  C   LIG    1        4.320   4.464  -1.429  0.00  0.00    +0.200 C 
ENDBRANCH  17  19
ENDBRANCH  15  17
ENDBRANCH   1  15
BRANCH   2  20
ATOM     20  C   LIG    1        2.431   0.803  -0.258  0.00  0.00    +0.170 C 
BRANCH  20  21
ATOM     21  S   LIG    1        2.867   0.074   1.341  0.00  0.00    +0.050 S 
BRANCH  21  22
ATOM     22  C   LIG    1        4.337  -0.788   0.892  0.00  0.00    +0.280 A 
ATOM     23  N   LIG    1        4.876  -0.829  -0.309  0.00  0.00    -0.570 NA
ATOM     24  C   LIG    1        5.985  -1.575  -0.279  0.00  0.00    +0.490 A 
ATOM     25  N   LIG    1        6.163  -2.026   0.939  0.00  0.00    -0.350 NA
ATOM     26  N   LIG    1        5.106  -1.529   1.719  0.00  0.00    -0.460 N 
ATOM     27  H   LIG    1        4.958  -1.687   2.664  0.00  0.00    +0.450 HD
BRANCH  24  28
ATOM     28  N   LIG    1        6.816  -1.835  -1.369  0.00  0.00    -0.820 N 
ATOM     29  H   LIG    1        6.608  -1.459  -2.239  0.00  0.00    +0.420 HD
ATOM     30  H   LIG    1        7.602  -2.393  -1.258  0.00  0.00    +0.420 HD
ENDBRANCH  24  28
ENDBRANCH  21  22
ENDBRANCH  20  21
ENDBRANCH   2  20
TORSDOF 8
