REMARK  Name = ZINCrH00000No4Rs.0
REMARK                            x       y       z     vdW  Elec       q    Type
REMARK                         _______ _______ _______ _____ _____    ______ ____
ROOT
ATOM      1  N   LIG    1        0.133   0.760  -1.201  0.00  0.00    -0.960 NA
ATOM      2  C   LIG    1        0.082  -0.309  -0.451  0.00  0.00    +0.490 A 
ATOM      3  S   LIG    1       -1.355  -1.264  -0.052  0.00  0.00    +0.210 S 
ATOM      4  C   LIG    1       -0.485  -2.436   0.949  0.00  0.00    -0.130 A 
ATOM      5  C   LIG    1       -0.912  -3.547   1.654  0.00  0.00    +0.070 A 
ATOM      6  C   LIG    1        0.002  -4.300   2.376  0.00  0.00    +0.140 A 
ATOM      7  C   LIG    1        1.338  -3.927   2.380  0.00  0.00    -0.010 A 
ATOM      8  C   LIG    1        1.761  -2.822   1.678  0.00  0.00    +0.090 A 
ATOM      9  C   LIG    1        0.854  -2.046   0.942  0.00  0.00    +0.080 A 
ATOM     10  N   LIG    1        1.123  -0.913   0.189  0.00  0.00    -0.590 N 
ENDROOT
BRANCH   1  11
ATOM     11  S   LIG    1        1.365   1.849  -1.008  0.00  0.00    +2.620 S 
ATOM     12  O   LIG    1        2.501   1.289  -1.652  0.00  0.00    -0.970 OA
ATOM     13  O   LIG    1        1.356   2.226   0.363  0.00  0.00    -0.970 OA
BRANCH  11  17
ATOM     14  C   LIG    1        0.259   5.557  -3.361  0.00  0.00    +0.190 A 
ATOM     15  C   LIG    1       -0.121   5.438  -2.032  0.00  0.00    -0.020 A 
ATOM     16  C   LIG    1        0.217   4.306  -1.317  0.00  0.00    +0.170 A 
ATOM     17  C   LIG    1        0.935   3.292  -1.923  0.00  0.00    -0.670 A 
ATOM     18  C   LIG    1        1.320   3.410  -3.246  0.00  0.00    +0.180 A 
ATOM     19  C   LIG    1        0.979   4.537  -3.968  0.00  0.00    -0.090 A 
BRANCH  14  20
ATOM     20  O   LIG    1       -0.072   6.670  -4.067  0.00  0.00    -0.310 OA
BRANCH  20  22
ATOM     21  C   LIG    1       -0.108   8.040  -6.057  0.00  0.00    +0.070 C 
ATOM     22  C   LIG    1        0.353   6.723  -5.431  0.00  0.00    +0.190 C 
ENDBRANCH  20  22
ENDBRANCH  14  20
ENDBRANCH  11  17
ENDBRANCH   1  11
BRANCH  10  23
ATOM     23  C   LIG    1        2.484  -0.380   0.085  0.00  0.00    +0.570 C 
ATOM     24  F   LIG    1        3.068  -0.823  -1.106  0.00  0.00    -0.140 F 
ATOM     25  F   LIG    1        3.243  -0.828   1.172  0.00  0.00    -0.160 F 
ENDBRANCH  10  23
BRANCH   6  26
ATOM     26  O   LIG    1       -0.408  -5.393   3.072  0.00  0.00    -0.310 OA
ATOM     27  C   LIG    1        0.593  -6.117   3.791  0.00  0.00    +0.250 C 
ENDBRANCH   6  26
TORSDOF 6
