REMARK  Name = ZINCpk00000y6wvk.0
REMARK                            x       y       z     vdW  Elec       q    Type
REMARK                         _______ _______ _______ _____ _____    ______ ____
ROOT
ATOM      1  C   LIG    1       -0.417   3.820   2.205  0.00  0.00    +0.560 C 
ATOM      2  N   LIG    1       -0.877   3.043   1.204  0.00  0.00    -0.600 N 
ATOM      3  C   LIG    1       -0.756   1.581   1.276  0.00  0.00    +0.270 C 
ATOM      4  C   LIG    1       -0.059   1.080   0.007  0.00  0.00    +0.030 C 
ATOM      5  C   LIG    1       -0.817   1.589  -1.221  0.00  0.00    -0.010 C 
ATOM      6  C   LIG    1       -0.802   3.119  -1.234  0.00  0.00    +0.020 C 
ATOM      7  C   LIG    1       -1.508   3.643   0.021  0.00  0.00    +0.280 C 
ATOM      8  O   LIG    1       -0.426   5.030   2.089  0.00  0.00    -0.520 OA
ENDROOT
BRANCH   1  15
ATOM      9  C   LIG    1        1.391   3.518   3.910  0.00  0.00    -0.010 A 
ATOM     10  C   LIG    1        1.863   2.929   5.084  0.00  0.00    +0.150 A 
ATOM     11  C   LIG    1        1.067   2.030   5.774  0.00  0.00    +0.020 A 
ATOM     12  C   LIG    1       -0.198   1.716   5.311  0.00  0.00    +0.090 A 
ATOM     13  C   LIG    1       -0.684   2.294   4.153  0.00  0.00    +0.050 A 
ATOM     14  F   LIG    1        3.097   3.231   5.543  0.00  0.00    -0.120 F 
ATOM     15  C   LIG    1        0.100   3.200   3.443  0.00  0.00    -0.050 A 
BRANCH   9  17
ATOM     16  N   LIG    1        2.861   5.178   2.615  0.00  0.00    -0.370 NA
ATOM     17  C   LIG    1        2.211   4.444   3.188  0.00  0.00    +0.240 C 
ENDBRANCH   9  17
ENDBRANCH   1  15
BRANCH   5  18
ATOM     18  C   LIG    1       -0.143   1.063  -2.490  0.00  0.00    +0.200 C 
ATOM     19  O   LIG    1       -0.183  -0.369  -2.504  0.00  0.00    -0.370 OA
ATOM     20  C   LIG    1       -0.944  -0.827  -3.633  0.00  0.00    +0.210 C 
ATOM     21  C   LIG    1       -0.864   0.323  -4.668  0.00  0.00    +0.020 C 
ATOM     22  C   LIG    1       -0.906   1.563  -3.735  0.00  0.00    -0.040 C 
BRANCH  22  23
ATOM     23  C   LIG    1       -0.196   2.733  -4.365  0.00  0.00    +0.530 C 
ATOM     24  O   LIG    1        0.834   3.150  -3.880  0.00  0.00    -0.530 OA
ATOM     25  N   LIG    1       -0.706   3.316  -5.469  0.00  0.00    -0.850 N 
ATOM     26  H   LIG    1       -0.249   4.069  -5.875  0.00  0.00    +0.410 HD
ATOM     27  H   LIG    1       -1.530   2.982  -5.857  0.00  0.00    +0.400 HD
ENDBRANCH  22  23
ENDBRANCH   5  18
TORSDOF 4
