REMARK  Name = ZINCtV00000tRRxx.0
REMARK                            x       y       z     vdW  Elec       q    Type
REMARK                         _______ _______ _______ _____ _____    ______ ____
ROOT
ATOM      1  C   LIG    1        1.254   0.150  -4.677  0.00  0.00    +0.150 C 
ATOM      2  C   LIG    1        0.809  -0.338  -3.322  0.00  0.00    -0.160 A 
ATOM      3  C   LIG    1        1.552  -1.091  -2.513  0.00  0.00    -0.030 A 
ATOM      4  C   LIG    1        0.907  -1.439  -1.253  0.00  0.00    -0.140 A 
ATOM      5  C   LIG    1        1.380  -2.211  -0.164  0.00  0.00    +0.400 A 
ATOM      6  N   LIG    1        0.593  -2.387   0.888  0.00  0.00    -0.550 NA
ATOM      7  C   LIG    1       -0.616  -1.856   0.933  0.00  0.00    +0.520 A 
ATOM      8  N   LIG    1       -1.098  -1.133  -0.051  0.00  0.00    -0.490 NA
ATOM      9  C   LIG    1       -0.377  -0.900  -1.156  0.00  0.00    +0.090 A 
ATOM     10  S   LIG    1       -0.753   0.013  -2.609  0.00  0.00    +0.180 S 
ENDROOT
BRANCH   5  11
ATOM     11  N   LIG    1        2.643  -2.773  -0.197  0.00  0.00    -0.480 N 
ATOM     12  C   LIG    1        3.430  -2.370   0.976  0.00  0.00    +0.180 C 
ATOM     13  C   LIG    1        4.863  -2.889   0.834  0.00  0.00    +0.040 C 
ATOM     14  C   LIG    1        4.838  -4.415   0.712  0.00  0.00    -0.010 C 
ATOM     15  C   LIG    1        3.973  -4.809  -0.488  0.00  0.00    +0.040 C 
ATOM     16  C   LIG    1        2.566  -4.235  -0.308  0.00  0.00    +0.190 C 
BRANCH  14  17
ATOM     17  C   LIG    1        6.263  -4.935   0.509  0.00  0.00    +0.070 C 
BRANCH  17  18
ATOM     18  C   LIG    1        7.081  -4.654   1.743  0.00  0.00    -0.080 A 
ATOM     19  C   LIG    1        7.782  -3.468   1.852  0.00  0.00    +0.000 A 
ATOM     20  C   LIG    1        8.529  -3.208   2.986  0.00  0.00    +0.000 A 
ATOM     21  C   LIG    1        8.582  -4.139   4.006  0.00  0.00    -0.010 A 
ATOM     22  C   LIG    1        7.885  -5.327   3.895  0.00  0.00    +0.000 A 
ATOM     23  C   LIG    1        7.134  -5.585   2.763  0.00  0.00    +0.000 A 
ENDBRANCH  17  18
ENDBRANCH  14  17
ENDBRANCH   5  11
BRANCH   3  24
ATOM     24  C   LIG    1        2.921  -1.538  -2.865  0.00  0.00    -0.010 A 
ATOM     25  C   LIG    1        4.023  -1.018  -2.187  0.00  0.00    +0.040 A 
ATOM     26  C   LIG    1        5.294  -1.442  -2.516  0.00  0.00    +0.000 A 
ATOM     27  C   LIG    1        5.477  -2.373  -3.523  0.00  0.00    +0.000 A 
ATOM     28  C   LIG    1        4.388  -2.889  -4.202  0.00  0.00    +0.000 A 
ATOM     29  C   LIG    1        3.111  -2.476  -3.879  0.00  0.00    +0.020 A 
ENDBRANCH   3  24
TORSDOF 4
