REMARK  Name = ZINCrD000000B92K.0
REMARK                            x       y       z     vdW  Elec       q    Type
REMARK                         _______ _______ _______ _____ _____    ______ ____
ROOT
ATOM      1  O   LIG    1       -2.599   5.269  -2.861  0.00  0.00    -0.510 OA
ATOM      2  C   LIG    1       -1.462   5.680  -2.731  0.00  0.00    +0.590 C 
ATOM      3  N   LIG    1       -0.741   5.335  -1.647  0.00  0.00    -0.700 N 
ATOM      4  H   LIG    1        0.166   5.663  -1.543  0.00  0.00    +0.410 HD
ENDROOT
BRANCH   2   5
ATOM      5  C   LIG    1       -0.873   6.558  -3.761  0.00  0.00    +0.050 C 
ATOM      6  N   LIG    1        0.315   7.062  -3.735  0.00  0.00    -0.240 NA
ATOM      7  O   LIG    1        0.595   7.867  -4.863  0.00  0.00    -0.170 OA
ATOM      8  C   LIG    1       -0.380   7.553  -5.878  0.00  0.00    +0.190 C 
ATOM      9  C   LIG    1       -1.562   7.028  -5.028  0.00  0.00    +0.110 C 
BRANCH   8  10
ATOM     10  C   LIG    1       -0.775   8.787  -6.647  0.00  0.00    -0.100 A 
ATOM     11  C   LIG    1       -0.704  10.029  -6.045  0.00  0.00    +0.030 A 
ATOM     12  C   LIG    1       -1.062  11.162  -6.752  0.00  0.00    +0.010 A 
ATOM     13  C   LIG    1       -1.500  11.051  -8.058  0.00  0.00    +0.020 A 
ATOM     14  C   LIG    1       -1.577   9.809  -8.659  0.00  0.00    +0.010 A 
ATOM     15  C   LIG    1       -1.214   8.676  -7.954  0.00  0.00    +0.030 A 
ENDBRANCH   8  10
ENDBRANCH   2   5
BRANCH   3  16
ATOM     16  C   LIG    1       -1.325   4.464  -0.624  0.00  0.00    +0.260 C 
BRANCH  16  17
ATOM     17  C   LIG    1       -0.305   4.229   0.491  0.00  0.00    +0.250 C 
BRANCH  17  18
ATOM     18  C   LIG    1       -0.860   3.237   1.480  0.00  0.00    -0.070 A 
ATOM     19  C   LIG    1       -1.510   3.683   2.615  0.00  0.00    +0.030 A 
ATOM     20  C   LIG    1       -2.016   2.772   3.524  0.00  0.00    +0.060 A 
ATOM     21  C   LIG    1       -1.874   1.417   3.297  0.00  0.00    +0.030 A 
ATOM     22  C   LIG    1       -1.227   0.971   2.159  0.00  0.00    +0.070 A 
ATOM     23  C   LIG    1       -0.722   1.881   1.250  0.00  0.00    -0.170 A 
BRANCH  23  24
ATOM     24  C   LIG    1       -0.017   1.395   0.010  0.00  0.00    +0.500 C 
ATOM     25  F   LIG    1       -0.694   1.858  -1.124  0.00  0.00    -0.170 F 
ATOM     26  F   LIG    1        1.296   1.879  -0.000  0.00  0.00    -0.170 F 
ATOM     27  F   LIG    1        0.002  -0.004   0.002  0.00  0.00    -0.170 F 
ENDBRANCH  23  24
ENDBRANCH  17  18
BRANCH  17  28
ATOM     28  O   LIG    1       -0.034   5.465   1.157  0.00  0.00    -0.540 OA
ATOM     29  H   LIG    1       -0.812   5.871   1.563  0.00  0.00    +0.380 HD
ENDBRANCH  17  28
ENDBRANCH  16  17
ENDBRANCH   3  16
TORSDOF 7
