REMARK  Name = ZINCpk00000FaXaL.0
REMARK                            x       y       z     vdW  Elec       q    Type
REMARK                         _______ _______ _______ _____ _____    ______ ____
ROOT
ATOM      1  O   LIG    1       -1.714   2.256   1.150  0.00  0.00    -0.510 OA
ATOM      2  C   LIG    1       -0.718   1.572   1.248  0.00  0.00    +0.510 C 
ATOM      3  N   LIG    1       -0.242   1.246   2.466  0.00  0.00    -0.620 N 
ATOM      4  C   LIG    1        0.961   0.412   2.600  0.00  0.00    +0.270 C 
ATOM      5  C   LIG    1        1.981   1.168   3.469  0.00  0.00    +0.270 C 
ATOM      6  N   LIG    1        1.304   1.635   4.687  0.00  0.00    -0.610 N 
ATOM      7  C   LIG    1        0.097   2.463   4.553  0.00  0.00    +0.280 C 
ATOM      8  C   LIG    1        1.780   1.308   5.905  0.00  0.00    +0.540 C 
ATOM      9  O   LIG    1        1.212   1.699   6.902  0.00  0.00    -0.510 OA
ATOM     10  C   LIG    1       -0.919   1.713   3.683  0.00  0.00    +0.290 C 
ENDROOT
BRANCH   8  11
ATOM     11  C   LIG    1        3.017   0.457   6.027  0.00  0.00    -0.050 C 
ATOM     12  C   LIG    1        4.281   1.123   6.574  0.00  0.00    +0.090 C 
ATOM     13  C   LIG    1        3.509   0.123   7.436  0.00  0.00    +0.030 C 
BRANCH  13  14
ATOM     14  C   LIG    1        2.718   0.669   8.597  0.00  0.00    +0.000 A 
ATOM     15  C   LIG    1        2.562   2.034   8.745  0.00  0.00    +0.060 A 
ATOM     16  C   LIG    1        1.836   2.536   9.810  0.00  0.00    +0.040 A 
ATOM     17  C   LIG    1        1.266   1.672  10.726  0.00  0.00    +0.010 A 
ATOM     18  C   LIG    1        1.421   0.306  10.577  0.00  0.00    +0.050 A 
ATOM     19  C   LIG    1        2.143  -0.196   9.510  0.00  0.00    -0.180 A 
BRANCH  19  20
ATOM     20  C   LIG    1        2.307  -1.684   9.345  0.00  0.00    +0.510 C 
ATOM     21  F   LIG    1        3.667  -2.010   9.381  0.00  0.00    -0.180 F 
ATOM     22  F   LIG    1        1.765  -2.080   8.117  0.00  0.00    -0.180 F 
ATOM     23  F   LIG    1        1.642  -2.345  10.383  0.00  0.00    -0.180 F 
ENDBRANCH  19  20
ENDBRANCH  13  14
ENDBRANCH   8  11
BRANCH   2  24
ATOM     24  C   LIG    1       -0.013   1.086   0.008  0.00  0.00    +0.220 C 
BRANCH  24  25
ATOM     25  O   LIG    1       -0.704   1.559  -1.150  0.00  0.00    -0.550 OA
ATOM     26  H   LIG    1       -0.304   1.284  -1.986  0.00  0.00    +0.390 HD
ENDBRANCH  24  25
ENDBRANCH   2  24
TORSDOF 5
