REMARK  Name = ZINCrH000004rbOq.0
REMARK                            x       y       z     vdW  Elec       q    Type
REMARK                         _______ _______ _______ _____ _____    ______ ____
ROOT
ATOM      1  C   LIG    1       -4.767  -0.254  -0.298  0.00  0.00    +0.150 A 
ATOM      2  C   LIG    1       -4.743   0.986   0.327  0.00  0.00    +0.000 A 
ATOM      3  C   LIG    1       -3.558   1.687   0.424  0.00  0.00    +0.010 A 
ATOM      4  C   LIG    1       -2.390   1.153  -0.104  0.00  0.00    +0.130 A 
ATOM      5  C   LIG    1       -2.415  -0.084  -0.735  0.00  0.00    +0.040 A 
ATOM      6  C   LIG    1       -3.599  -0.788  -0.827  0.00  0.00    +0.040 A 
ENDROOT
BRANCH   1   9
ATOM      7  N   LIG    1       -7.131  -2.989  -0.302  0.00  0.00    -0.620 N 
ATOM      8  C   LIG    1       -5.967  -2.310  -0.303  0.00  0.00    +0.710 C 
ATOM      9  N   LIG    1       -5.970  -0.966  -0.396  0.00  0.00    -0.690 N 
ATOM     10  H   LIG    1       -6.805  -0.491  -0.531  0.00  0.00    +0.410 HD
ATOM     11  O   LIG    1       -4.913  -2.912  -0.220  0.00  0.00    -0.570 OA
ATOM     12  C   LIG    1       -8.401  -2.264  -0.403  0.00  0.00    +0.280 C 
BRANCH   7  13
ATOM     13  C   LIG    1       -7.128  -4.450  -0.201  0.00  0.00    +0.360 C 
BRANCH  13  18
ATOM     14  C   LIG    1       -7.338  -5.997   5.363  0.00  0.00    +0.090 C 
ATOM     15  C   LIG    1       -7.284  -5.593   3.912  0.00  0.00    -0.080 A 
ATOM     16  C   LIG    1       -8.454  -5.414   3.200  0.00  0.00    -0.010 A 
ATOM     17  C   LIG    1       -8.404  -5.044   1.869  0.00  0.00    +0.020 A 
ATOM     18  C   LIG    1       -7.183  -4.853   1.250  0.00  0.00    -0.120 A 
ATOM     19  C   LIG    1       -6.012  -5.037   1.961  0.00  0.00    +0.040 A 
ATOM     20  C   LIG    1       -6.062  -5.403   3.293  0.00  0.00    +0.000 A 
ENDBRANCH  13  18
ENDBRANCH   7  13
ENDBRANCH   1   9
BRANCH   4  21
ATOM     21  N   LIG    1       -1.188   1.865  -0.007  0.00  0.00    -0.670 N 
ATOM     22  H   LIG    1       -1.194   2.835  -0.039  0.00  0.00    +0.410 HD
ATOM     23  C   LIG    1       -0.022   1.203   0.133  0.00  0.00    +0.520 C 
ATOM     24  O   LIG    1       -0.021  -0.002   0.266  0.00  0.00    -0.490 OA
BRANCH  23  25
ATOM     25  C   LIG    1        1.281   1.960   0.116  0.00  0.00    +0.160 C 
ATOM     26  C   LIG    1        1.526   2.579  -1.278  0.00  0.00    +0.020 C 
ATOM     27  C   LIG    1        3.050   2.439  -1.488  0.00  0.00    +0.010 C 
ATOM     28  C   LIG    1        3.546   1.752  -0.196  0.00  0.00    +0.210 C 
ATOM     29  O   LIG    1        2.389   1.058   0.322  0.00  0.00    -0.340 OA
ENDBRANCH  23  25
ENDBRANCH   4  21
TORSDOF 5
