REMARK  Name = ZINCkj000005kuCl.1
REMARK                            x       y       z     vdW  Elec       q    Type
REMARK                         _______ _______ _______ _____ _____    ______ ____
ROOT
ATOM      1  N   LIG    1        1.905  -2.309   1.352  0.00  0.00    -0.390 N 
ATOM      2  C   LIG    1        0.550  -2.389   1.911  0.00  0.00    +0.230 C 
ATOM      3  C   LIG    1        0.622  -2.841   3.371  0.00  0.00    +0.060 C 
ATOM      4  C   LIG    1        1.288  -4.218   3.441  0.00  0.00    +0.070 C 
ATOM      5  C   LIG    1        2.671  -4.140   2.789  0.00  0.00    +0.010 C 
ATOM      6  C   LIG    1        2.523  -3.640   1.350  0.00  0.00    +0.290 C 
ATOM      7  H   LIG    1        2.462  -1.682   1.913  0.00  0.00    +0.430 HD
ENDROOT
BRANCH   5   8
ATOM      8  C   LIG    1        3.542  -3.186   3.565  0.00  0.00    +0.520 C 
ATOM      9  O   LIG    1        3.999  -2.203   3.022  0.00  0.00    -0.550 OA
ATOM     10  N   LIG    1        3.812  -3.426   4.864  0.00  0.00    -0.830 N 
ATOM     11  H   LIG    1        4.372  -2.812   5.364  0.00  0.00    +0.420 HD
ATOM     12  H   LIG    1        3.446  -4.212   5.298  0.00  0.00    +0.410 HD
ENDBRANCH   5   8
BRANCH   1  13
ATOM     13  C   LIG    1        1.836  -1.801  -0.025  0.00  0.00    +0.370 C 
BRANCH  13  20
ATOM     14  C   LIG    1       -1.290   3.553   0.039  0.00  0.00    +0.140 C 
ATOM     15  C   LIG    1       -1.251   2.047   0.030  0.00  0.00    -0.030 A 
ATOM     16  C   LIG    1       -2.407   1.330   0.032  0.00  0.00    +0.050 A 
ATOM     17  C   LIG    1       -2.355  -0.074   0.024  0.00  0.00    +0.060 A 
ATOM     18  C   LIG    1       -1.165  -0.711   0.009  0.00  0.00    +0.170 A 
ATOM     19  N   LIG    1        0.002  -0.004   0.002  0.00  0.00    -0.350 N 
ATOM     20  C   LIG    1        1.316  -0.386  -0.013  0.00  0.00    -0.170 A 
ATOM     21  C   LIG    1        2.060   0.742  -0.014  0.00  0.00    +0.290 A 
ATOM     22  N   LIG    1        1.238   1.794  -0.000  0.00  0.00    -0.480 NA
ATOM     23  C   LIG    1       -0.017   1.367   0.010  0.00  0.00    +0.260 A 
ENDBRANCH  13  20
ENDBRANCH   1  13
TORSDOF 3
