REMARK  Name = ZINCkj000005kuCl.0
REMARK                            x       y       z     vdW  Elec       q    Type
REMARK                         _______ _______ _______ _____ _____    ______ ____
ROOT
ATOM      1  N   LIG    1       -2.680   5.090   0.034  0.00  0.00    -0.390 N 
ATOM      2  C   LIG    1       -2.066   5.602  -1.196  0.00  0.00    +0.250 C 
ATOM      3  C   LIG    1       -0.594   5.187  -1.247  0.00  0.00    +0.070 C 
ATOM      4  C   LIG    1       -0.499   3.659  -1.226  0.00  0.00    +0.060 C 
ATOM      5  C   LIG    1       -1.208   3.131   0.025  0.00  0.00    -0.010 C 
ATOM      6  C   LIG    1       -2.657   3.622   0.029  0.00  0.00    +0.290 C 
ATOM      7  H   LIG    1       -2.164   5.429   0.833  0.00  0.00    +0.420 HD
ENDROOT
BRANCH   5   8
ATOM      8  C   LIG    1       -1.187   1.624   0.017  0.00  0.00    +0.530 C 
ATOM      9  O   LIG    1       -2.229   1.003   0.018  0.00  0.00    -0.530 OA
ATOM     10  N   LIG    1       -0.011   0.966   0.007  0.00  0.00    -0.840 N 
ATOM     11  H   LIG    1        0.822   1.462   0.002  0.00  0.00    +0.410 HD
ATOM     12  H   LIG    1        0.002  -0.004   0.002  0.00  0.00    +0.420 HD
ENDBRANCH   5   8
BRANCH   1  13
ATOM     13  C   LIG    1       -4.070   5.556   0.117  0.00  0.00    +0.380 C 
BRANCH  13  20
ATOM     14  C   LIG    1       -4.024  11.536   1.753  0.00  0.00    +0.140 C 
ATOM     15  C   LIG    1       -3.950  10.071   2.100  0.00  0.00    -0.040 A 
ATOM     16  C   LIG    1       -3.793   9.678   3.393  0.00  0.00    +0.050 A 
ATOM     17  C   LIG    1       -3.726   8.309   3.701  0.00  0.00    +0.060 A 
ATOM     18  C   LIG    1       -3.815   7.386   2.721  0.00  0.00    +0.180 A 
ATOM     19  N   LIG    1       -3.979   7.766   1.420  0.00  0.00    -0.350 N 
ATOM     20  C   LIG    1       -4.090   7.056   0.256  0.00  0.00    -0.170 A 
ATOM     21  C   LIG    1       -4.226   7.953  -0.746  0.00  0.00    +0.280 A 
ATOM     22  N   LIG    1       -4.195   9.182  -0.226  0.00  0.00    -0.480 NA
ATOM     23  C   LIG    1       -4.043   9.094   1.088  0.00  0.00    +0.260 A 
ENDBRANCH  13  20
ENDBRANCH   1  13
TORSDOF 3
