REMARK  Name = ZINCAx0000000grn.0
REMARK                            x       y       z     vdW  Elec       q    Type
REMARK                         _______ _______ _______ _____ _____    ______ ____
ROOT
ATOM      1  N   LIG    1       -5.017   3.490  -0.958  0.00  0.00    -0.500 N 
ATOM      2  C   LIG    1       -4.061   2.541  -0.941  0.00  0.00    +0.720 A 
ATOM      3  N   LIG    1       -3.513   2.113   0.209  0.00  0.00    -0.540 N 
ATOM      4  C   LIG    1       -3.907   2.617   1.397  0.00  0.00    +0.600 A 
ATOM      5  C   LIG    1       -4.903   3.617   1.425  0.00  0.00    -0.150 A 
ATOM      6  N   LIG    1       -5.525   4.337   2.425  0.00  0.00    -0.410 N 
ATOM      7  C   LIG    1       -6.410   5.157   1.827  0.00  0.00    +0.290 A 
ATOM      8  C   LIG    1       -7.314   6.129   2.542  0.00  0.00    +0.210 C 
ATOM      9  N   LIG    1       -6.367   4.984   0.530  0.00  0.00    -0.490 NA
ATOM     10  O   LIG    1       -3.406   2.217   2.433  0.00  0.00    -0.510 OA
ATOM     11  O   LIG    1       -3.685   2.060  -1.992  0.00  0.00    -0.530 OA
ATOM     12  C   LIG    1       -5.460   4.051   0.229  0.00  0.00    +0.330 A 
ENDROOT
BRANCH   1  13
ATOM     13  C   LIG    1       -5.588   3.930  -2.233  0.00  0.00    +0.320 C 
BRANCH  13  15
ATOM     14  C   LIG    1       -7.399   3.522  -3.906  0.00  0.00    +0.030 C 
ATOM     15  C   LIG    1       -6.802   3.063  -2.574  0.00  0.00    +0.000 C 
ENDBRANCH  13  15
ENDBRANCH   1  13
BRANCH   6  16
ATOM     16  C   LIG    1       -5.270   4.230   3.864  0.00  0.00    +0.330 C 
BRANCH  16  17
ATOM     17  C   LIG    1       -6.196   3.173   4.469  0.00  0.00    +0.170 C 
BRANCH  17  18
ATOM     18  O   LIG    1       -5.947   3.069   5.872  0.00  0.00    -0.380 OA
ATOM     19  C   LIG    1       -6.765   2.103   6.537  0.00  0.00    +0.200 C 
ENDBRANCH  17  18
ENDBRANCH  16  17
ENDBRANCH   6  16
BRANCH   3  20
ATOM     20  C   LIG    1       -2.477   1.078   0.173  0.00  0.00    +0.380 C 
BRANCH  20  21
ATOM     21  C   LIG    1       -1.122   1.728   0.058  0.00  0.00    +0.510 C 
ATOM     22  N   LIG    1       -0.011   0.966   0.007  0.00  0.00    -0.670 N 
ATOM     23  H   LIG    1       -0.087  -0.001  -0.013  0.00  0.00    +0.410 HD
ATOM     24  O   LIG    1       -1.031   2.936   0.011  0.00  0.00    -0.510 OA
BRANCH  22  25
ATOM     25  C   LIG    1        1.253   1.571  -0.022  0.00  0.00    +0.120 A 
ATOM     26  C   LIG    1        1.434   2.767  -0.703  0.00  0.00    +0.050 A 
ATOM     27  C   LIG    1        2.678   3.366  -0.728  0.00  0.00    +0.010 A 
ATOM     28  C   LIG    1        3.750   2.766  -0.082  0.00  0.00    +0.110 A 
ATOM     29  C   LIG    1        3.570   1.566   0.595  0.00  0.00    -0.030 A 
ATOM     30  C   LIG    1        2.325   0.970   0.624  0.00  0.00    +0.020 A 
BRANCH  28  31
ATOM     31  N   LIG    1        5.012   3.369  -0.112  0.00  0.00    -0.500 N 
ATOM     32  C   LIG    1        6.056   2.441   0.378  0.00  0.00    +0.190 C 
ATOM     33  C   LIG    1        7.375   3.122   0.621  0.00  0.00    +0.040 C 
ATOM     34  C   LIG    1        7.444   3.540   2.105  0.00  0.00    +0.000 C 
ATOM     35  C   LIG    1        6.678   4.753   2.371  0.00  0.00    +0.000 C 
ATOM     36  C   LIG    1        5.178   4.576   2.055  0.00  0.00    -0.010 C 
ATOM     37  C   LIG    1        4.988   4.684   0.567  0.00  0.00    +0.210 C 
ENDBRANCH  28  31
ENDBRANCH  22  25
ENDBRANCH  20  21
ENDBRANCH   3  20
TORSDOF 9
