REMARK  Name = ZINCrD000000Asej.0
REMARK                            x       y       z     vdW  Elec       q    Type
REMARK                         _______ _______ _______ _____ _____    ______ ____
ROOT
ATOM      1  C   LIG    1       -3.127   3.493   5.342  0.00  0.00    +0.140 A 
ATOM      2  C   LIG    1       -2.031   3.338   4.503  0.00  0.00    +0.150 A 
ATOM      3  C   LIG    1       -1.848   4.205   3.442  0.00  0.00    -0.650 A 
ATOM      4  C   LIG    1       -2.750   5.228   3.218  0.00  0.00    +0.120 A 
ATOM      5  C   LIG    1       -3.845   5.382   4.049  0.00  0.00    +0.040 A 
ATOM      6  C   LIG    1       -4.035   4.519   5.111  0.00  0.00    -0.020 A 
ATOM      7 CL   LIG    1       -5.407   4.717   6.157  0.00  0.00    -0.050 Cl
ENDROOT
BRANCH   1  10
ATOM      8  O   LIG    1       -1.137   2.226   6.574  0.00  0.00    -0.480 OA
ATOM      9  C   LIG    1       -2.260   1.973   6.955  0.00  0.00    +0.530 C 
ATOM     10  N   LIG    1       -3.315   2.617   6.417  0.00  0.00    -0.670 N 
ATOM     11  H   LIG    1       -4.205   2.474   6.776  0.00  0.00    +0.420 HD
BRANCH   9  12
ATOM     12  C   LIG    1       -2.477   0.938   8.029  0.00  0.00    +0.110 C 
BRANCH  12  13
ATOM     13  S   LIG    1       -0.876   0.257   8.543  0.00  0.00    -0.170 S 
BRANCH  13  14
ATOM     14  C   LIG    1       -1.337  -0.949   9.818  0.00  0.00    +0.020 C 
ATOM     15  C   LIG    1       -1.954  -0.219  11.012  0.00  0.00    +0.020 C 
ATOM     16  C   LIG    1       -2.342  -1.236  12.087  0.00  0.00    +0.010 C 
ATOM     17  C   LIG    1       -1.096  -1.998  12.543  0.00  0.00    +0.000 C 
ATOM     18  C   LIG    1       -0.479  -2.728  11.348  0.00  0.00    +0.020 C 
ATOM     19  C   LIG    1       -0.091  -1.711  10.273  0.00  0.00    +0.040 C 
ENDBRANCH  13  14
ENDBRANCH  12  13
ENDBRANCH   9  12
ENDBRANCH   1  10
BRANCH   3  20
ATOM     20  S   LIG    1       -0.458   4.009   2.377  0.00  0.00    +2.690 S 
ATOM     21  O   LIG    1       -0.226   5.279   1.783  0.00  0.00    -0.950 OA
ATOM     22  O   LIG    1        0.527   3.311   3.127  0.00  0.00    -0.940 OA
BRANCH  20  23
ATOM     23  N   LIG    1       -0.918   2.995   1.151  0.00  0.00    -1.000 NA
ATOM     24  C   LIG    1       -0.747   1.539   1.269  0.00  0.00    +0.270 C 
ATOM     25  C   LIG    1       -0.031   1.033   0.012  0.00  0.00    +0.220 C 
ATOM     26  O   LIG    1       -0.726   1.499  -1.147  0.00  0.00    -0.380 OA
ATOM     27  C   LIG    1       -0.754   2.923  -1.279  0.00  0.00    +0.220 C 
ATOM     28  C   LIG    1       -1.508   3.525  -0.088  0.00  0.00    +0.270 C 
ENDBRANCH  20  23
ENDBRANCH   3  20
TORSDOF 6
