REMARK  Name = ZINCpk000000oIzy.0
REMARK                            x       y       z     vdW  Elec       q    Type
REMARK                         _______ _______ _______ _____ _____    ______ ____
ROOT
ATOM      1  N   LIG    1       -0.212   1.056   2.442  0.00  0.00    -0.600 N 
ATOM      2  C   LIG    1        0.880   1.917   2.874  0.00  0.00    +0.260 C 
ATOM      3  C   LIG    1        1.278   1.606   4.318  0.00  0.00    +0.290 C 
ATOM      4  N   LIG    1        1.398   0.144   4.456  0.00  0.00    -0.610 N 
ATOM      5  C   LIG    1        0.189  -0.657   4.212  0.00  0.00    +0.170 C 
ATOM      6  C   LIG    1       -0.738  -0.569   5.426  0.00  0.00    +0.070 C 
ATOM      7  C   LIG    1        0.582  -2.116   3.973  0.00  0.00    +0.100 C 
ATOM      8  C   LIG    1        2.567  -0.435   4.794  0.00  0.00    +0.510 C 
ATOM      9  O   LIG    1        2.615  -1.629   4.998  0.00  0.00    -0.490 OA
ATOM     10  C   LIG    1       -0.518  -0.116   3.000  0.00  0.00    +0.520 C 
ATOM     11  O   LIG    1       -1.405  -0.779   2.505  0.00  0.00    -0.530 OA
ENDROOT
BRANCH   1  13
ATOM     12  C   LIG    1       -0.434   1.006   0.007  0.00  0.00    +0.010 C 
ATOM     13  C   LIG    1       -1.036   1.512   1.320  0.00  0.00    +0.270 C 
ENDBRANCH   1  13
BRANCH   8  14
ATOM     14  C   LIG    1        3.815   0.402   4.916  0.00  0.00    +0.360 C 
BRANCH  14  15
ATOM     15  N   LIG    1        4.942  -0.455   5.290  0.00  0.00    -0.370 N 
ATOM     16  C   LIG    1        6.114  -0.574   4.639  0.00  0.00    +0.480 A 
ATOM     17  N   LIG    1        6.857  -1.433   5.285  0.00  0.00    -0.530 NA
ATOM     18  C   LIG    1        6.195  -1.889   6.357  0.00  0.00    +0.260 A 
ATOM     19  N   LIG    1        5.015  -1.310   6.402  0.00  0.00    -0.280 NA
BRANCH  18  20
ATOM     20  C   LIG    1        6.711  -2.879   7.335  0.00  0.00    -0.020 A 
ATOM     21  C   LIG    1        5.923  -3.269   8.416  0.00  0.00    +0.050 A 
ATOM     22  C   LIG    1        6.405  -4.195   9.319  0.00  0.00    +0.010 A 
ATOM     23  C   LIG    1        7.673  -4.726   9.159  0.00  0.00    +0.030 A 
ATOM     24  C   LIG    1        8.461  -4.338   8.091  0.00  0.00    +0.000 A 
ATOM     25  C   LIG    1        7.986  -3.418   7.178  0.00  0.00    +0.050 A 
ENDBRANCH  18  20
ENDBRANCH  14  15
ENDBRANCH   8  14
TORSDOF 4
