REMARK  Name = ZINCpe000000XTgd.0
REMARK                            x       y       z     vdW  Elec       q    Type
REMARK                         _______ _______ _______ _____ _____    ______ ____
ROOT
ATOM      1  N   LIG    1        4.672  -0.513  -1.478  0.00  0.00    -0.990 NA
ATOM      2  C   LIG    1        4.441  -1.355  -2.661  0.00  0.00    +0.300 C 
ATOM      3  C   LIG    1        3.948  -0.456  -3.808  0.00  0.00    +0.260 C 
ATOM      4  N   LIG    1        4.855   0.695  -3.923  0.00  0.00    -0.610 N 
ATOM      5  C   LIG    1        5.090   1.533  -2.739  0.00  0.00    +0.280 C 
ATOM      6  C   LIG    1        5.460   0.977  -5.094  0.00  0.00    +0.520 C 
ATOM      7  O   LIG    1        6.206   1.929  -5.178  0.00  0.00    -0.510 OA
ATOM      8  C   LIG    1        5.579   0.637  -1.594  0.00  0.00    +0.290 C 
ENDROOT
BRANCH   6   9
ATOM      9  C   LIG    1        5.209   0.109  -6.300  0.00  0.00    +0.160 C 
ATOM     10  C   LIG    1        5.756  -1.316  -6.060  0.00  0.00    +0.020 C 
ATOM     11  C   LIG    1        6.319  -1.738  -7.435  0.00  0.00    +0.010 C 
ATOM     12  C   LIG    1        6.046  -0.519  -8.343  0.00  0.00    +0.210 C 
ATOM     13  O   LIG    1        5.950   0.602  -7.438  0.00  0.00    -0.340 OA
ENDBRANCH   6   9
BRANCH   1  14
ATOM     14  S   LIG    1        3.929  -0.860  -0.039  0.00  0.00    +2.680 S 
ATOM     15  O   LIG    1        3.604  -2.243  -0.078  0.00  0.00    -0.940 OA
ATOM     16  O   LIG    1        4.733  -0.278   0.978  0.00  0.00    -0.940 OA
BRANCH  14  22
ATOM     17  C   LIG    1        1.144   3.595   0.010  0.00  0.00    +0.110 C 
ATOM     18  C   LIG    1        1.166   2.089   0.002  0.00  0.00    -0.050 A 
ATOM     19  C   LIG    1       -0.017   1.380   0.010  0.00  0.00    +0.080 A 
ATOM     20  C   LIG    1        0.002  -0.004   0.002  0.00  0.00    +0.050 A 
ATOM     21  C   LIG    1        1.206  -0.686  -0.013  0.00  0.00    +0.130 A 
ATOM     22  C   LIG    1        2.397   0.011  -0.021  0.00  0.00    -0.640 A 
ATOM     23  C   LIG    1        2.385   1.407  -0.013  0.00  0.00    +0.070 A 
BRANCH  23  24
ATOM     24  C   LIG    1        3.617   2.136  -0.021  0.00  0.00    +0.220 C 
ATOM     25  N   LIG    1        4.595   2.715  -0.028  0.00  0.00    -0.350 NA
ENDBRANCH  23  24
ENDBRANCH  14  22
ENDBRANCH   1  14
TORSDOF 4
