REMARK  Name = ZINCpk00000xRqOt.0
REMARK                            x       y       z     vdW  Elec       q    Type
REMARK                         _______ _______ _______ _____ _____    ______ ____
ROOT
ATOM      1  C   LIG    1       -1.717   0.851   4.209  0.00  0.00    +0.500 C 
ATOM      2  N   LIG    1       -0.675   1.545   3.712  0.00  0.00    -0.720 N 
ATOM      3  H   LIG    1       -0.378   2.357   4.152  0.00  0.00    +0.410 HD
ATOM      4  O   LIG    1       -2.088  -0.164   3.659  0.00  0.00    -0.520 OA
ENDROOT
BRANCH   1   5
ATOM      5  C   LIG    1       -2.423   1.337   5.449  0.00  0.00    +0.330 C 
BRANCH   5   9
ATOM      6  N   LIG    1       -5.691  -1.046   6.808  0.00  0.00    -0.600 N 
ATOM      7  C   LIG    1       -4.456  -0.961   7.586  0.00  0.00    +0.290 C 
ATOM      8  C   LIG    1       -3.260  -0.721   6.669  0.00  0.00    +0.290 C 
ATOM      9  N   LIG    1       -3.512   0.416   5.784  0.00  0.00    -0.590 N 
ATOM     10  C   LIG    1       -4.745   0.623   5.280  0.00  0.00    +0.520 C 
ATOM     11  O   LIG    1       -4.938   1.501   4.466  0.00  0.00    -0.480 OA
ATOM     12  C   LIG    1       -5.873  -0.250   5.735  0.00  0.00    +0.520 C 
ATOM     13  O   LIG    1       -6.936  -0.238   5.150  0.00  0.00    -0.480 OA
BRANCH   6  15
ATOM     14  C   LIG    1       -7.700  -1.331   8.174  0.00  0.00    +0.020 C 
ATOM     15  C   LIG    1       -6.734  -2.000   7.194  0.00  0.00    +0.290 C 
ENDBRANCH   6  15
ENDBRANCH   5   9
ENDBRANCH   1   5
BRANCH   2  16
ATOM     16  C   LIG    1        0.011   1.072   2.506  0.00  0.00    +0.360 C 
BRANCH  16  17
ATOM     17  C   LIG    1        1.425   1.594   2.496  0.00  0.00    -0.020 A 
ATOM     18  C   LIG    1        2.515   0.905   2.113  0.00  0.00    -0.040 A 
ATOM     19  C   LIG    1        3.621   1.773   2.260  0.00  0.00    -0.060 A 
ATOM     20  C   LIG    1        3.142   2.938   2.731  0.00  0.00    -0.010 A 
ATOM     21  C   LIG    1        3.960   4.164   3.047  0.00  0.00    +0.180 C 
ATOM     22  O   LIG    1        1.811   2.824   2.872  0.00  0.00    -0.170 OA
ENDBRANCH  16  17
BRANCH  16  23
ATOM     23  C   LIG    1       -0.729   1.579   1.267  0.00  0.00    -0.080 C 
ATOM     24  C   LIG    1       -2.164   1.050   1.278  0.00  0.00    +0.040 C 
ATOM     25  C   LIG    1       -0.750   3.109   1.275  0.00  0.00    +0.030 C 
ATOM     26  C   LIG    1       -0.013   1.086   0.008  0.00  0.00    +0.040 C 
ENDBRANCH  16  23
ENDBRANCH   2  16
TORSDOF 6
