REMARK  Name = ZINCrD00000dSB7O.0
REMARK                            x       y       z     vdW  Elec       q    Type
REMARK                         _______ _______ _______ _____ _____    ______ ____
ROOT
ATOM      1  C   LIG    1       -2.309   8.858   5.769  0.00  0.00    +0.370 A 
ATOM      2  N   LIG    1       -1.942   8.236   4.668  0.00  0.00    -0.510 NA
ATOM      3  C   LIG    1       -2.953   7.484   4.216  0.00  0.00    +0.310 A 
ATOM      4  N   LIG    1       -3.982   7.624   5.023  0.00  0.00    -0.270 NA
ATOM      5  N   LIG    1       -3.587   8.506   6.041  0.00  0.00    -0.360 N 
ENDROOT
BRANCH   1   7
ATOM      6  C   LIG    1       -0.190  10.140   6.300  0.00  0.00    +0.050 A 
ATOM      7  C   LIG    1       -1.472   9.781   6.566  0.00  0.00    +0.020 A 
ATOM      8  N   LIG    1       -1.844  10.431   7.699  0.00  0.00    -0.480 NA
ATOM      9  C   LIG    1       -0.840  11.147   8.113  0.00  0.00    +0.450 A 
ATOM     10  O   LIG    1        0.189  10.990   7.271  0.00  0.00    -0.190 OA
BRANCH   6  12
ATOM     11  C   LIG    1        0.458  10.627   3.956  0.00  0.00    +0.050 C 
ATOM     12  C   LIG    1        0.649   9.674   5.138  0.00  0.00    +0.160 C 
ENDBRANCH   6  12
ENDBRANCH   1   7
BRANCH   3  13
ATOM     13  C   LIG    1       -2.920   6.636   2.999  0.00  0.00    +0.050 A 
ATOM     14  C   LIG    1       -1.871   6.474   2.140  0.00  0.00    +0.210 A 
ATOM     15  N   LIG    1       -2.298   5.617   1.186  0.00  0.00    -0.280 N 
ATOM     16  N   LIG    1       -3.515   5.290   1.446  0.00  0.00    -0.070 NA
ATOM     17  N   LIG    1       -3.918   5.872   2.520  0.00  0.00    -0.230 NA
BRANCH  15  18
ATOM     18  C   LIG    1       -1.510   5.146   0.044  0.00  0.00    +0.330 C 
BRANCH  18  19
ATOM     19  C   LIG    1       -1.490   3.616   0.036  0.00  0.00    -0.010 C 
ATOM     20  C   LIG    1       -0.773   3.123  -1.223  0.00  0.00    +0.030 C 
ATOM     21  C   LIG    1       -0.753   1.593  -1.232  0.00  0.00    +0.010 C 
ATOM     22  C   LIG    1       -0.013   1.086   0.008  0.00  0.00    +0.000 C 
ATOM     23  C   LIG    1       -0.729   1.579   1.267  0.00  0.00    +0.000 C 
ATOM     24  C   LIG    1       -0.750   3.109   1.275  0.00  0.00    +0.010 C 
ENDBRANCH  18  19
ENDBRANCH  15  18
ENDBRANCH   3  13
BRANCH   5  25
ATOM     25  C   LIG    1       -4.399   8.960   7.173  0.00  0.00    +0.340 C 
BRANCH  25  26
ATOM     26  C   LIG    1       -5.157  10.230   6.779  0.00  0.00    +0.220 C 
ATOM     27  F   LIG    1       -5.933  10.664   7.859  0.00  0.00    -0.200 F 
ENDBRANCH  25  26
ENDBRANCH   5  25
TORSDOF 7
