REMARK  Name = ZINCrH00000No4QR.0
REMARK                            x       y       z     vdW  Elec       q    Type
REMARK                         _______ _______ _______ _____ _____    ______ ____
ROOT
ATOM      1  O   LIG    1        0.690   6.583  -0.866  0.00  0.00    -0.520 OA
ATOM      2  C   LIG    1        0.890   5.405  -1.089  0.00  0.00    +0.710 C 
ATOM      3  N   LIG    1        0.309   4.402  -0.401  0.00  0.00    -0.700 N 
ATOM      4  H   LIG    1       -0.321   4.486   0.332  0.00  0.00    +0.440 HD
ATOM      5  C   LIG    1        0.820   3.161  -0.984  0.00  0.00    +0.090 C 
ATOM      6  C   LIG    1        1.754   3.608  -2.078  0.00  0.00    +0.540 C 
ATOM      7  O   LIG    1        2.401   2.908  -2.826  0.00  0.00    -0.440 OA
ATOM      8  C   LIG    1        1.384   2.138   0.000  0.00  0.00    +0.100 C 
ATOM      9  C   LIG    1       -0.018   1.503   0.010  0.00  0.00    +0.040 C 
ATOM     10  C   LIG    1       -0.229   2.124  -1.383  0.00  0.00    +0.080 C 
ATOM     11  N   LIG    1        1.715   4.958  -2.046  0.00  0.00    -0.530 N 
ENDROOT
BRANCH  11  12
ATOM     12  C   LIG    1        2.445   5.787  -2.905  0.00  0.00    +0.080 A 
ATOM     13  C   LIG    1        3.700   6.214  -2.567  0.00  0.00    +0.280 A 
ATOM     14  N   LIG    1        4.412   6.993  -3.367  0.00  0.00    -0.480 NA
ATOM     15  C   LIG    1        3.967   7.420  -4.526  0.00  0.00    +0.340 A 
ATOM     16  C   LIG    1        2.688   7.046  -4.969  0.00  0.00    -0.110 A 
ATOM     17  C   LIG    1        2.170   7.476  -6.200  0.00  0.00    +0.060 A 
ATOM     18  C   LIG    1        0.922   7.082  -6.578  0.00  0.00    +0.010 A 
ATOM     19  C   LIG    1        0.151   6.258  -5.762  0.00  0.00    +0.050 A 
ATOM     20  C   LIG    1        0.622   5.820  -4.560  0.00  0.00    +0.010 A 
ATOM     21  C   LIG    1        1.900   6.206  -4.139  0.00  0.00    -0.010 A 
ENDBRANCH  11  12
BRANCH   9  22
ATOM     22  C   LIG    1        0.002  -0.004   0.002  0.00  0.00    -0.110 A 
ATOM     23  C   LIG    1        0.600  -0.681  -1.044  0.00  0.00    +0.050 A 
ATOM     24  C   LIG    1        0.619  -2.064  -1.051  0.00  0.00    +0.000 A 
ATOM     25  C   LIG    1        0.040  -2.770  -0.014  0.00  0.00    +0.040 A 
ATOM     26  C   LIG    1       -0.559  -2.095   1.033  0.00  0.00    -0.010 A 
ATOM     27  C   LIG    1       -0.573  -0.710   1.045  0.00  0.00    +0.100 A 
ATOM     28  F   LIG    1       -1.153  -0.049   2.071  0.00  0.00    -0.140 F 
ENDBRANCH   9  22
TORSDOF 2
