REMARK  Name = ZINCqH0000031K3V.0
REMARK                            x       y       z     vdW  Elec       q    Type
REMARK                         _______ _______ _______ _____ _____    ______ ____
ROOT
ATOM      1  C   LIG    1       -0.714  -2.207   0.960  0.00  0.00    +0.260 C 
ATOM      2  C   LIG    1        0.729  -2.214   0.406  0.00  0.00    +0.070 C 
ATOM      3  C   LIG    1        1.086  -0.750   0.276  0.00  0.00    +0.520 C 
ATOM      4  N   LIG    1       -0.025   0.004   0.338  0.00  0.00    -0.560 N 
ATOM      5  O   LIG    1        2.211  -0.318   0.140  0.00  0.00    -0.500 OA
ATOM      6  C   LIG    1       -1.225  -0.827   0.490  0.00  0.00    +0.280 C 
ENDROOT
BRANCH   4   7
ATOM      7  C   LIG    1       -0.037   1.403   0.260  0.00  0.00    +0.170 A 
ATOM      8  C   LIG    1        1.159   2.108   0.245  0.00  0.00    +0.020 A 
ATOM      9  C   LIG    1        1.146   3.486   0.162  0.00  0.00    +0.040 A 
ATOM     10  C   LIG    1       -0.061   4.167   0.107  0.00  0.00    +0.060 A 
ATOM     11  C   LIG    1       -1.257   3.463   0.128  0.00  0.00    +0.050 A 
ATOM     12  C   LIG    1       -1.246   2.085   0.204  0.00  0.00    -0.010 A 
BRANCH  10  13
ATOM     13  O   LIG    1       -0.073   5.524   0.031  0.00  0.00    -0.260 OA
BRANCH  13  14
ATOM     14  C   LIG    1        0.242   6.100  -1.159  0.00  0.00    +0.120 A 
ATOM     15  C   LIG    1        0.460   5.308  -2.277  0.00  0.00    -0.060 A 
ATOM     16  C   LIG    1        0.775   5.896  -3.487  0.00  0.00    +0.050 A 
ATOM     17  C   LIG    1        0.883   7.271  -3.582  0.00  0.00    -0.020 A 
ATOM     18  C   LIG    1        0.672   8.062  -2.467  0.00  0.00    +0.050 A 
ATOM     19  C   LIG    1        0.351   7.480  -1.256  0.00  0.00    -0.020 A 
ENDBRANCH  13  14
ENDBRANCH  10  13
ENDBRANCH   4   7
BRANCH   1  21
ATOM     20  C   LIG    1       -1.586  -4.482   0.993  0.00  0.00    +0.530 C 
ATOM     21  N   LIG    1       -1.507  -3.289   0.371  0.00  0.00    -0.720 N 
ATOM     22  H   LIG    1       -1.976  -3.146  -0.466  0.00  0.00    +0.400 HD
ATOM     23  O   LIG    1       -1.000  -4.660   2.040  0.00  0.00    -0.530 OA
BRANCH  20  25
ATOM     24  C   LIG    1       -2.324  -6.831   1.285  0.00  0.00    +0.050 C 
ATOM     25  C   LIG    1       -2.402  -5.595   0.387  0.00  0.00    -0.090 C 
ATOM     26  C   LIG    1       -1.850  -5.936  -0.999  0.00  0.00    +0.050 C 
ATOM     27  C   LIG    1       -3.859  -5.148   0.260  0.00  0.00    +0.050 C 
ENDBRANCH  20  25
ENDBRANCH   1  21
TORSDOF 5
