REMARK  Name = ZINCpe00000zfLuD.0
REMARK                            x       y       z     vdW  Elec       q    Type
REMARK                         _______ _______ _______ _____ _____    ______ ____
ROOT
ATOM      1  C   LIG    1        0.137   4.175  -1.968  0.00  0.00    +0.590 C 
ATOM      2  N   LIG    1        1.183   4.246  -1.121  0.00  0.00    -0.720 N 
ATOM      3  H   LIG    1        2.059   4.497  -1.452  0.00  0.00    +0.400 HD
ATOM      4  O   LIG    1       -0.941   3.772  -1.572  0.00  0.00    -0.530 OA
ENDROOT
BRANCH   1   7
ATOM      5  C   LIG    1       -2.106   4.292  -4.106  0.00  0.00    +0.320 C 
ATOM      6  N   LIG    1       -0.698   4.638  -4.319  0.00  0.00    -0.390 N 
ATOM      7  C   LIG    1        0.298   4.585  -3.367  0.00  0.00    -0.060 A 
ATOM      8  C   LIG    1        1.475   4.982  -3.971  0.00  0.00    +0.030 A 
ATOM      9  C   LIG    1        1.172   5.279  -5.294  0.00  0.00    -0.220 A 
ATOM     10  C   LIG    1        2.092   5.755  -6.390  0.00  0.00    +0.300 C 
ATOM     11  O   LIG    1        1.415   5.583  -7.642  0.00  0.00    -0.380 OA
ATOM     12  C   LIG    1        0.096   6.135  -7.679  0.00  0.00    +0.230 C 
ATOM     13  C   LIG    1       -0.844   5.290  -6.808  0.00  0.00    +0.090 C 
ATOM     14  C   LIG    1       -0.161   5.064  -5.479  0.00  0.00    +0.050 A 
ENDBRANCH   1   7
BRANCH   2  15
ATOM     15  C   LIG    1        0.996   3.943   0.301  0.00  0.00    +0.270 C 
ATOM     16  C   LIG    1        2.128   4.580   1.144  0.00  0.00    +0.050 C 
ATOM     17  C   LIG    1        2.138   3.703   2.421  0.00  0.00    +0.000 C 
ATOM     18  C   LIG    1        1.868   2.275   1.902  0.00  0.00    +0.000 C 
ATOM     19  C   LIG    1        1.141   2.429   0.554  0.00  0.00    +0.150 C 
BRANCH  19  20
ATOM     20  O   LIG    1       -0.149   1.818   0.621  0.00  0.00    -0.550 OA
ATOM     21  H   LIG    1       -0.125   0.866   0.789  0.00  0.00    +0.370 HD
ENDBRANCH  19  20
BRANCH  17  22
ATOM     22  C   LIG    1        3.502   3.776   3.110  0.00  0.00    +0.330 C 
BRANCH  22  23
ATOM     23  N   LIG    1        3.450   3.038   4.375  0.00  0.00    -0.370 N 
ATOM     24  C   LIG    1        4.275   2.036   4.744  0.00  0.00    +0.220 A 
ATOM     25  C   LIG    1        3.898   1.623   5.976  0.00  0.00    -0.120 A 
ATOM     26  C   LIG    1        2.804   2.399   6.373  0.00  0.00    +0.220 A 
ATOM     27  N   LIG    1        2.538   3.251   5.417  0.00  0.00    -0.290 NA
ENDBRANCH  22  23
ENDBRANCH  17  22
ENDBRANCH   2  15
TORSDOF 5
