REMARK  Name = ZINCqH0000008wtD.0
REMARK                            x       y       z     vdW  Elec       q    Type
REMARK                         _______ _______ _______ _____ _____    ______ ____
ROOT
ATOM      1  C   LIG    1        7.642   0.888  -0.062  0.00  0.00    -0.090 A 
ATOM      2  C   LIG    1        6.696   0.488   0.864  0.00  0.00    +0.050 A 
ATOM      3  C   LIG    1        5.455   1.095   0.892  0.00  0.00    +0.020 A 
ATOM      4  C   LIG    1        5.159   2.109  -0.009  0.00  0.00    +0.120 A 
ATOM      5  C   LIG    1        6.109   2.505  -0.941  0.00  0.00    +0.020 A 
ATOM      6  C   LIG    1        7.350   1.897  -0.961  0.00  0.00    +0.040 A 
ENDROOT
BRANCH   4   7
ATOM      7  N   LIG    1        3.902   2.727   0.018  0.00  0.00    -0.450 N 
ATOM      8  C   LIG    1        2.693   2.099   0.025  0.00  0.00    +0.490 A 
ATOM      9  N   LIG    1        1.733   2.977   0.051  0.00  0.00    -0.490 NA
ATOM     10  C   LIG    1        2.260   4.229   0.062  0.00  0.00    +0.050 A 
ATOM     11  C   LIG    1        1.699   5.509   0.089  0.00  0.00    +0.070 A 
ATOM     12  C   LIG    1        2.519   6.614   0.095  0.00  0.00    +0.000 A 
ATOM     13  C   LIG    1        3.898   6.469   0.074  0.00  0.00    +0.030 A 
ATOM     14  C   LIG    1        4.468   5.213   0.047  0.00  0.00    +0.010 A 
ATOM     15  C   LIG    1        3.658   4.087   0.041  0.00  0.00    +0.050 A 
ENDBRANCH   4   7
BRANCH   1  17
ATOM     16  C   LIG    1        9.966   1.004   0.796  0.00  0.00    +0.050 C 
ATOM     17  C   LIG    1        8.994   0.223  -0.091  0.00  0.00    +0.290 C 
BRANCH  17  18
ATOM     18  N   LIG    1        9.498   0.201  -1.466  0.00  0.00    -0.610 N 
ATOM     19  C   LIG    1        9.394  -0.922  -2.204  0.00  0.00    +0.520 C 
ATOM     20  O   LIG    1        8.883  -1.914  -1.730  0.00  0.00    -0.510 OA
ATOM     21  C   LIG    1       10.115   1.400  -2.039  0.00  0.00    +0.280 C 
BRANCH  19  22
ATOM     22  C   LIG    1        9.912  -0.944  -3.619  0.00  0.00    +0.150 C 
ATOM     23  C   LIG    1       11.443  -0.764  -3.619  0.00  0.00    +0.020 C 
ATOM     24  C   LIG    1       11.975  -2.034  -4.326  0.00  0.00    +0.020 C 
ATOM     25  C   LIG    1       10.729  -2.513  -5.114  0.00  0.00    +0.210 C 
ATOM     26  O   LIG    1        9.632  -2.218  -4.222  0.00  0.00    -0.350 OA
ENDBRANCH  19  22
ENDBRANCH  17  18
ENDBRANCH   1  17
TORSDOF 4
