REMARK  Name = ZINCqH0000034GZP.0
REMARK                            x       y       z     vdW  Elec       q    Type
REMARK                         _______ _______ _______ _____ _____    ______ ____
ROOT
ATOM      1  C   LIG    1       -3.645   2.998   0.037  0.00  0.00    -0.160 A 
ATOM      2  C   LIG    1       -3.628   1.616   0.029  0.00  0.00    +0.070 A 
ATOM      3  C   LIG    1       -2.424   0.938   0.019  0.00  0.00    -0.070 A 
ATOM      4  C   LIG    1       -1.230   1.648   0.017  0.00  0.00    +0.230 A 
ATOM      5  C   LIG    1       -1.251   3.037   0.030  0.00  0.00    -0.060 A 
ATOM      6  C   LIG    1       -2.458   3.708   0.035  0.00  0.00    +0.080 A 
ENDROOT
BRANCH   1  12
ATOM      7  C   LIG    1       -5.980   5.925  -2.772  0.00  0.00    +0.340 C 
ATOM      8  N   LIG    1       -5.746   4.900  -1.753  0.00  0.00    -0.580 N 
ATOM      9  C   LIG    1       -6.388   3.727  -1.705  0.00  0.00    +0.700 C 
ATOM     10  N   LIG    1       -5.990   2.965  -0.671  0.00  0.00    -0.720 N 
ATOM     11  H   LIG    1       -6.319   2.081  -0.442  0.00  0.00    +0.440 HD
ATOM     12  C   LIG    1       -4.960   3.734   0.048  0.00  0.00    +0.170 C 
ATOM     13  C   LIG    1       -5.404   4.018   1.484  0.00  0.00    +0.100 C 
ATOM     14  O   LIG    1       -7.237   3.388  -2.507  0.00  0.00    -0.540 OA
ATOM     15  C   LIG    1       -4.858   5.021  -0.746  0.00  0.00    +0.530 C 
ATOM     16  O   LIG    1       -4.130   5.964  -0.522  0.00  0.00    -0.460 OA
ENDBRANCH   1  12
BRANCH   4  17
ATOM     17  N   LIG    1       -0.011   0.966   0.007  0.00  0.00    -0.740 N 
ATOM     18  H   LIG    1        0.002  -0.004   0.002  0.00  0.00    +0.400 HD
BRANCH  17  19
ATOM     19  C   LIG    1        1.248   1.716  -0.001  0.00  0.00    +0.350 C 
BRANCH  19  20
ATOM     20  C   LIG    1        2.406   0.752  -0.017  0.00  0.00    -0.130 A 
ATOM     21  C   LIG    1        2.972   0.291   1.100  0.00  0.00    +0.010 A 
ATOM     22  S   LIG    1        4.283  -0.806   0.687  0.00  0.00    +0.210 S 
ATOM     23  C   LIG    1        3.986  -0.564  -1.029  0.00  0.00    -0.310 A 
ATOM     24  C   LIG    1        2.967   0.282  -1.192  0.00  0.00    +0.100 A 
BRANCH  23  25
ATOM     25  C   LIG    1        4.762  -1.213  -2.146  0.00  0.00    +0.540 C 
ATOM     26  F   LIG    1        3.929  -1.382  -3.256  0.00  0.00    -0.170 F 
ATOM     27  F   LIG    1        5.233  -2.461  -1.722  0.00  0.00    -0.170 F 
ATOM     28  F   LIG    1        5.846  -0.400  -2.495  0.00  0.00    -0.170 F 
ENDBRANCH  23  25
ENDBRANCH  19  20
ENDBRANCH  17  19
ENDBRANCH   4  17
TORSDOF 5
