REMARK  Name = ZINCrg000000nKk4.0
REMARK                            x       y       z     vdW  Elec       q    Type
REMARK                         _______ _______ _______ _____ _____    ______ ____
ROOT
ATOM      1  C   LIG    1        0.049   3.450   3.248  0.00  0.00    +0.240 C 
ENDROOT
BRANCH   1   2
ATOM      2  C   LIG    1       -0.582   3.812   1.929  0.00  0.00    +0.520 C 
ATOM      3  N   LIG    1       -0.678   2.889   0.952  0.00  0.00    -0.610 N 
ATOM      4  C   LIG    1       -0.108   1.550   1.147  0.00  0.00    +0.270 C 
ATOM      5  C   LIG    1        0.888   1.258   0.013  0.00  0.00    +0.330 C 
ATOM      6  N   LIG    1        0.246   1.652  -1.250  0.00  0.00    -0.630 N 
ATOM      7  C   LIG    1        0.078   0.921  -2.353  0.00  0.00    +0.700 C 
ATOM      8  N   LIG    1       -0.721   1.496  -3.264  0.00  0.00    -0.640 N 
ATOM      9  C   LIG    1       -1.108   2.835  -2.792  0.00  0.00    +0.280 C 
ATOM     10  C   LIG    1       -1.142   0.887  -4.529  0.00  0.00    +0.330 C 
ATOM     11  O   LIG    1        0.602  -0.164  -2.518  0.00  0.00    -0.580 OA
ATOM     12  C   LIG    1       -0.359   2.986  -1.458  0.00  0.00    +0.200 C 
ATOM     13  C   LIG    1       -1.352   3.219  -0.313  0.00  0.00    +0.300 C 
ATOM     14  O   LIG    1       -1.003   4.935   1.745  0.00  0.00    -0.530 OA
ENDBRANCH   1   2
BRANCH   1  15
ATOM     15  N   LIG    1        0.189   4.655   4.070  0.00  0.00    -0.720 N 
ATOM     16  H   LIG    1       -0.400   5.413   3.924  0.00  0.00    +0.410 HD
ATOM     17  C   LIG    1        1.134   4.712   5.028  0.00  0.00    +0.520 C 
ATOM     18  O   LIG    1        1.870   3.765   5.211  0.00  0.00    -0.520 OA
BRANCH  17  19
ATOM     19  C   LIG    1        1.278   5.951   5.873  0.00  0.00    +0.110 C 
BRANCH  19  20
ATOM     20  C   LIG    1        2.398   5.758   6.862  0.00  0.00    -0.070 A 
ATOM     21  C   LIG    1        2.135   5.225   8.110  0.00  0.00    +0.020 A 
ATOM     22  C   LIG    1        3.164   5.044   9.015  0.00  0.00    +0.000 A 
ATOM     23  C   LIG    1        4.455   5.405   8.676  0.00  0.00    +0.000 A 
ATOM     24  C   LIG    1        4.717   5.943   7.430  0.00  0.00    +0.000 A 
ATOM     25  C   LIG    1        3.689   6.120   6.523  0.00  0.00    +0.020 A 
ENDBRANCH  19  20
ENDBRANCH  17  19
ENDBRANCH   1  15
BRANCH   1  26
ATOM     26  C   LIG    1       -0.837   2.437   3.976  0.00  0.00    +0.020 C 
BRANCH  26  28
ATOM     27  C   LIG    1       -1.017   0.951   5.977  0.00  0.00    +0.010 C 
ATOM     28  C   LIG    1       -0.131   1.965   5.249  0.00  0.00    +0.020 C 
ENDBRANCH  26  28
ENDBRANCH   1  26
TORSDOF 6
