REMARK  Name = ZINCpk00000KfLIT.0
REMARK                            x       y       z     vdW  Elec       q    Type
REMARK                         _______ _______ _______ _____ _____    ______ ____
ROOT
ATOM      1  C   LIG    1       -3.335   7.676   3.858  0.00  0.00    +0.030 C 
ATOM      2  C   LIG    1       -4.484   6.689   4.082  0.00  0.00    +0.010 C 
ATOM      3  C   LIG    1       -4.087   5.697   5.178  0.00  0.00    +0.040 C 
ATOM      4  C   LIG    1       -2.799   4.980   4.769  0.00  0.00    +0.170 C 
ATOM      5  N   LIG    1       -1.731   5.967   4.567  0.00  0.00    -0.510 NA
ATOM      6  C   LIG    1       -2.068   6.902   3.487  0.00  0.00    +0.190 C 
ENDROOT
BRANCH   1  11
ATOM      7  N   LIG    1       -5.854   9.023   2.068  0.00  0.00    -0.580 N 
ATOM      8  C   LIG    1       -5.300   8.178   1.192  0.00  0.00    +0.700 C 
ATOM      9  N   LIG    1       -4.022   7.887   1.495  0.00  0.00    -0.720 N 
ATOM     10  H   LIG    1       -3.429   7.299   1.002  0.00  0.00    +0.440 HD
ATOM     11  C   LIG    1       -3.700   8.635   2.723  0.00  0.00    +0.130 C 
ATOM     12  C   LIG    1       -2.559   9.623   2.467  0.00  0.00    +0.090 C 
ATOM     13  O   LIG    1       -5.886   7.723   0.229  0.00  0.00    -0.540 OA
ATOM     14  C   LIG    1       -4.984   9.375   3.041  0.00  0.00    +0.530 C 
ATOM     15  O   LIG    1       -5.187  10.123   3.973  0.00  0.00    -0.460 OA
BRANCH   7  17
ATOM     16  C   LIG    1       -8.156   8.561   2.752  0.00  0.00    +0.030 C 
ATOM     17  C   LIG    1       -7.233   9.509   1.984  0.00  0.00    +0.310 C 
ENDBRANCH   7  17
ENDBRANCH   1  11
BRANCH   5  18
ATOM     18  C   LIG    1       -0.445   5.306   4.308  0.00  0.00    +0.390 C 
BRANCH  18  19
ATOM     19  C   LIG    1       -0.511   4.576   2.992  0.00  0.00    +0.120 A 
ATOM     20  N   LIG    1       -0.202   5.063   1.824  0.00  0.00    -0.270 NA
ATOM     21  N   LIG    1       -0.373   4.159   0.925  0.00  0.00    -0.290 NA
ATOM     22  C   LIG    1       -0.806   3.066   1.487  0.00  0.00    +0.200 A 
ATOM     23  O   LIG    1       -0.900   3.303   2.807  0.00  0.00    -0.220 OA
BRANCH  22  24
ATOM     24  C   LIG    1       -1.136   1.773   0.788  0.00  0.00    +0.050 C 
ATOM     25  C   LIG    1       -0.013   1.086   0.008  0.00  0.00    +0.060 C 
ATOM     26  C   LIG    1       -1.150   1.781  -0.743  0.00  0.00    +0.080 C 
ENDBRANCH  22  24
ENDBRANCH  18  19
ENDBRANCH   5  18
TORSDOF 5
