REMARK  Name = ZINCrD0000075qkc.0
REMARK                            x       y       z     vdW  Elec       q    Type
REMARK                         _______ _______ _______ _____ _____    ______ ____
ROOT
ATOM      1  N   LIG    1        2.139  -2.652   1.429  0.00  0.00    -0.970 NA
ENDROOT
BRANCH   1   2
ATOM      2  S   LIG    1        3.562  -3.023   0.667  0.00  0.00    +2.690 S 
ATOM      3  O   LIG    1        3.230  -3.317  -0.683  0.00  0.00    -0.960 OA
ATOM      4  O   LIG    1        4.247  -3.934   1.516  0.00  0.00    -0.950 OA
BRANCH   2   5
ATOM      5  C   LIG    1        4.533  -1.553   0.631  0.00  0.00    -0.660 A 
ATOM      6  C   LIG    1        4.431  -0.683  -0.439  0.00  0.00    +0.120 A 
ATOM      7  C   LIG    1        5.188   0.473  -0.465  0.00  0.00    -0.010 A 
ATOM      8  C   LIG    1        6.056   0.754   0.574  0.00  0.00    +0.070 A 
ATOM      9  C   LIG    1        6.162  -0.118   1.641  0.00  0.00    -0.010 A 
ATOM     10  C   LIG    1        5.400  -1.272   1.670  0.00  0.00    +0.120 A 
ENDBRANCH   2   5
ENDBRANCH   1   2
BRANCH   1  11
ATOM     11  C   LIG    1        0.994  -2.175   0.650  0.00  0.00    +0.330 C 
BRANCH  11  13
ATOM     12  O   LIG    1        1.831  -0.054   1.256  0.00  0.00    -0.520 OA
ATOM     13  C   LIG    1        0.974  -0.668   0.659  0.00  0.00    +0.490 C 
ATOM     14  N   LIG    1        0.002  -0.004   0.002  0.00  0.00    -0.730 N 
ATOM     15  H   LIG    1       -0.684  -0.496  -0.476  0.00  0.00    +0.400 HD
BRANCH  14  16
ATOM     16  C   LIG    1       -0.018   1.461   0.010  0.00  0.00    +0.240 C 
ATOM     17  C   LIG    1       -0.734   1.954   1.269  0.00  0.00    +0.000 C 
ATOM     18  C   LIG    1       -0.755   3.484   1.277  0.00  0.00    +0.000 C 
ATOM     19  C   LIG    1       -1.495   3.991   0.038  0.00  0.00    +0.000 C 
ATOM     20  C   LIG    1       -0.778   3.497  -1.221  0.00  0.00    +0.010 C 
ATOM     21  C   LIG    1       -0.758   1.968  -1.230  0.00  0.00    +0.010 C 
ENDBRANCH  14  16
ENDBRANCH  11  13
ENDBRANCH   1  11
BRANCH   1  22
ATOM     22  C   LIG    1        2.026  -2.802   2.882  0.00  0.00    +0.350 C 
BRANCH  22  23
ATOM     23  C   LIG    1        1.431  -4.148   3.204  0.00  0.00    -0.120 A 
ATOM     24  C   LIG    1        0.060  -4.288   3.320  0.00  0.00    +0.020 A 
ATOM     25  C   LIG    1       -0.486  -5.524   3.611  0.00  0.00    -0.010 A 
ATOM     26  C   LIG    1        0.338  -6.619   3.795  0.00  0.00    +0.010 A 
ATOM     27  C   LIG    1        1.709  -6.478   3.683  0.00  0.00    +0.000 A 
ATOM     28  C   LIG    1        2.255  -5.243   3.388  0.00  0.00    +0.040 A 
ENDBRANCH  22  23
ENDBRANCH   1  22
TORSDOF 7
