REMARK  Name = ZINCtV00001bB3vO.0
REMARK                            x       y       z     vdW  Elec       q    Type
REMARK                         _______ _______ _______ _____ _____    ______ ____
ROOT
ATOM      1  C   LIG    1       -1.932  -1.025  -2.603  0.00  0.00    +0.080 C 
ATOM      2  C   LIG    1       -0.587  -0.378  -2.939  0.00  0.00    +0.070 C 
ENDROOT
BRANCH   1   3
ATOM      3  C   LIG    1       -2.739  -1.191  -3.865  0.00  0.00    -0.080 A 
ATOM      4  C   LIG    1       -3.084  -0.080  -4.615  0.00  0.00    +0.060 A 
ATOM      5  C   LIG    1       -3.820  -0.224  -5.778  0.00  0.00    +0.000 A 
ATOM      6  C   LIG    1       -4.224  -1.475  -6.192  0.00  0.00    +0.060 A 
ATOM      7  C   LIG    1       -3.884  -2.601  -5.437  0.00  0.00    -0.160 A 
ATOM      8  C   LIG    1       -3.136  -2.449  -4.268  0.00  0.00    +0.080 A 
BRANCH   7   9
ATOM      9  C   LIG    1       -4.312  -3.945  -5.875  0.00  0.00    +0.440 C 
ATOM     10  O   LIG    1       -3.579  -4.901  -5.710  0.00  0.00    -0.450 OA
BRANCH   9  11
ATOM     11  C   LIG    1       -5.632  -4.128  -6.513  0.00  0.00    -0.160 A 
ATOM     12  C   LIG    1       -6.543  -3.071  -6.557  0.00  0.00    +0.060 A 
ATOM     13  C   LIG    1       -7.771  -3.247  -7.160  0.00  0.00    +0.000 A 
ATOM     14  C   LIG    1       -8.107  -4.472  -7.709  0.00  0.00    +0.040 A 
ATOM     15  C   LIG    1       -7.211  -5.526  -7.664  0.00  0.00    +0.000 A 
ATOM     16  C   LIG    1       -5.977  -5.362  -7.070  0.00  0.00    +0.070 A 
ENDBRANCH   9  11
ENDBRANCH   7   9
ENDBRANCH   1   3
BRANCH   1  17
ATOM     17  C   LIG    1       -2.685  -0.146  -1.638  0.00  0.00    +0.460 C 
ATOM     18  O   LIG    1       -3.766   0.300  -1.944  0.00  0.00    -0.500 OA
BRANCH  17  19
ATOM     19  O   LIG    1       -2.155   0.142  -0.439  0.00  0.00    -0.330 OA
BRANCH  19  26
ATOM     20  C   LIG    1       -2.635   0.638   1.897  0.00  0.00    +0.010 C 
ATOM     21  C   LIG    1       -1.145   0.847   2.175  0.00  0.00    +0.030 C 
ATOM     22  C   LIG    1       -0.780   2.312   1.922  0.00  0.00    +0.000 C 
ATOM     23  C   LIG    1       -1.081   2.668   0.465  0.00  0.00    -0.020 C 
ATOM     24  C   LIG    1       -2.571   2.458   0.187  0.00  0.00    +0.020 C 
ATOM     25  C   LIG    1       -0.258   1.770  -0.461  0.00  0.00    +0.030 C 
ATOM     26  C   LIG    1       -2.936   0.994   0.440  0.00  0.00    +0.180 C 
BRANCH  20  28
ATOM     27  C   LIG    1       -2.698  -1.183   3.607  0.00  0.00    +0.010 C 
ATOM     28  C   LIG    1       -3.000  -0.826   2.150  0.00  0.00    -0.010 C 
ATOM     29  C   LIG    1       -4.489  -1.036   1.872  0.00  0.00    +0.020 C 
ENDBRANCH  20  28
ENDBRANCH  19  26
ENDBRANCH  17  19
ENDBRANCH   1  17
TORSDOF 7
