REMARK  Name = ZINCrH000004jiAY.0
REMARK                            x       y       z     vdW  Elec       q    Type
REMARK                         _______ _______ _______ _____ _____    ______ ____
ROOT
ATOM      1  C   LIG    1       -2.609   5.236  -1.964  0.00  0.00    +0.500 C 
ATOM      2  N   LIG    1       -2.994   4.112  -1.327  0.00  0.00    -0.580 N 
ATOM      3  O   LIG    1       -1.842   6.006  -1.425  0.00  0.00    -0.510 OA
ENDROOT
BRANCH   2   4
ATOM      4  C   LIG    1       -3.832   3.130  -2.018  0.00  0.00    +0.190 C 
ATOM      5  C   LIG    1       -4.286   1.904  -1.222  0.00  0.00    +0.040 C 
ATOM      6  C   LIG    1       -3.220   1.758  -2.309  0.00  0.00    +0.030 C 
ENDBRANCH   2   4
BRANCH   1   7
ATOM      7  C   LIG    1       -3.131   5.536  -3.345  0.00  0.00    +0.330 C 
BRANCH   7  16
ATOM      8  C   LIG    1       -1.325   6.787  -4.583  0.00  0.00    +0.300 A 
ATOM      9  N   LIG    1       -1.032   8.019  -4.880  0.00  0.00    -0.490 NA
ATOM     10  C   LIG    1       -1.978   8.849  -4.371  0.00  0.00    +0.050 A 
ATOM     11  C   LIG    1       -2.155  10.235  -4.391  0.00  0.00    +0.070 A 
ATOM     12  C   LIG    1       -3.239  10.791  -3.771  0.00  0.00    +0.000 A 
ATOM     13  C   LIG    1       -4.168   9.993  -3.119  0.00  0.00    +0.030 A 
ATOM     14  C   LIG    1       -4.013   8.623  -3.087  0.00  0.00    +0.010 A 
ATOM     15  C   LIG    1       -2.922   8.040  -3.716  0.00  0.00    +0.060 A 
ATOM     16  N   LIG    1       -2.478   6.741  -3.863  0.00  0.00    -0.480 N 
BRANCH   8  18
ATOM     17  C   LIG    1       -0.987   5.064  -6.334  0.00  0.00    +0.040 C 
ATOM     18  C   LIG    1       -0.506   5.585  -4.978  0.00  0.00    +0.130 C 
ENDBRANCH   8  18
ENDBRANCH   7  16
ENDBRANCH   1   7
BRANCH   2  19
ATOM     19  C   LIG    1       -2.574   3.873   0.056  0.00  0.00    +0.340 C 
BRANCH  19  20
ATOM     20  C   LIG    1       -1.264   3.127   0.061  0.00  0.00    -0.150 A 
ATOM     21  C   LIG    1       -1.258   1.744   0.058  0.00  0.00    +0.060 A 
ATOM     22  C   LIG    1       -0.060   1.057   0.069  0.00  0.00    -0.030 A 
ATOM     23  C   LIG    1        1.139   1.756   0.071  0.00  0.00    +0.140 A 
ATOM     24  C   LIG    1        1.130   3.143   0.069  0.00  0.00    -0.080 A 
ATOM     25  C   LIG    1       -0.071   3.825   0.063  0.00  0.00    +0.080 A 
BRANCH  23  26
ATOM     26  O   LIG    1        2.319   1.083   0.076  0.00  0.00    -0.320 OA
ATOM     27  C   LIG    1        3.514   1.867   0.079  0.00  0.00    +0.250 C 
ENDBRANCH  23  26
ENDBRANCH  19  20
ENDBRANCH   2  19
TORSDOF 7
