REMARK  Name = ZINCtV000002C9Nr.0
REMARK                            x       y       z     vdW  Elec       q    Type
REMARK                         _______ _______ _______ _____ _____    ______ ____
ROOT
ATOM      1  N   LIG    1        5.812   3.849   0.077  0.00  0.00    -0.660 N 
ATOM      2  H   LIG    1        5.253   3.072  -0.074  0.00  0.00    +0.420 HD
ATOM      3  C   LIG    1        5.252   5.069   0.199  0.00  0.00    +0.570 C 
ATOM      4  O   LIG    1        5.957   6.054   0.306  0.00  0.00    -0.500 OA
ENDROOT
BRANCH   3   5
ATOM      5  C   LIG    1        3.780   5.210   0.201  0.00  0.00    -0.070 A 
ATOM      6  C   LIG    1        2.952   4.124  -0.036  0.00  0.00    +0.040 A 
ATOM      7  C   LIG    1        1.558   4.304  -0.029  0.00  0.00    +0.240 A 
ATOM      8  N   LIG    1        1.002   5.477   0.207  0.00  0.00    -0.440 NA
ATOM      9  C   LIG    1        1.724   6.573   0.449  0.00  0.00    +0.130 A 
ATOM     10  C   LIG    1        1.103   7.811   0.697  0.00  0.00    +0.050 A 
ATOM     11  C   LIG    1        1.866   8.912   0.940  0.00  0.00    +0.040 A 
ATOM     12  C   LIG    1        3.256   8.835   0.948  0.00  0.00    +0.020 A 
ATOM     13  C   LIG    1        3.892   7.652   0.713  0.00  0.00    +0.060 A 
ATOM     14  C   LIG    1        3.139   6.501   0.459  0.00  0.00    -0.060 A 
BRANCH   7  15
ATOM     15  C   LIG    1        0.687   3.142  -0.287  0.00  0.00    -0.000 A 
ATOM     16  C   LIG    1       -0.674   3.152  -0.309  0.00  0.00    +0.020 A 
ATOM     17  C   LIG    1       -1.084   1.837  -0.596  0.00  0.00    -0.060 A 
ATOM     18  C   LIG    1        0.033   1.093  -0.726  0.00  0.00    +0.200 A 
ATOM     19  O   LIG    1        1.101   1.885  -0.542  0.00  0.00    -0.170 OA
ENDBRANCH   7  15
ENDBRANCH   3   5
BRANCH   1  25
ATOM     20  C   LIG    1       11.914   4.448  -0.167  0.00  0.00    +0.080 A 
ATOM     21  N   LIG    1       11.324   3.431   0.361  0.00  0.00    -0.470 NA
ATOM     22  C   LIG    1        9.976   3.411   0.357  0.00  0.00    +0.080 A 
ATOM     23  C   LIG    1        9.107   2.423   0.866  0.00  0.00    +0.100 A 
ATOM     24  C   LIG    1        7.747   2.574   0.771  0.00  0.00    +0.020 A 
ATOM     25  C   LIG    1        7.202   3.705   0.170  0.00  0.00    +0.160 A 
ATOM     26  C   LIG    1        8.036   4.683  -0.341  0.00  0.00    +0.080 A 
ATOM     27  C   LIG    1        9.418   4.543  -0.245  0.00  0.00    -0.160 A 
ATOM     28  S   LIG    1       10.728   5.592  -0.781  0.00  0.00    +0.120 S 
BRANCH  20  30
ATOM     29  C   LIG    1       14.208   3.138   0.546  0.00  0.00    +0.150 C 
ATOM     30  S   LIG    1       13.660   4.662  -0.261  0.00  0.00    +0.010 S 
ENDBRANCH  20  30
ENDBRANCH   1  25
TORSDOF 4
