REMARK  Name = ZINCrD000000fQ8t.0
REMARK                            x       y       z     vdW  Elec       q    Type
REMARK                         _______ _______ _______ _____ _____    ______ ____
ROOT
ATOM      1  N   LIG    1        1.681   0.315   6.101  0.00  0.00    -0.680 N 
ATOM      2  H   LIG    1        1.403   0.712   6.941  0.00  0.00    +0.410 HD
ATOM      3  C   LIG    1        2.756  -0.496   6.062  0.00  0.00    +0.730 C 
ATOM      4  N   LIG    1        3.501  -0.682   7.170  0.00  0.00    -0.630 N 
ATOM      5  C   LIG    1        3.257  -0.059   8.480  0.00  0.00    +0.250 C 
ATOM      6  C   LIG    1        4.342  -0.583   9.448  0.00  0.00    +0.090 C 
ATOM      7  C   LIG    1        4.821  -1.873   8.760  0.00  0.00    -0.070 C 
ATOM      8  C   LIG    1        3.984  -3.057   9.145  0.00  0.00    +0.540 C 
ATOM      9  N   LIG    1        4.826  -3.961   9.686  0.00  0.00    -0.660 N 
ATOM     10  H   LIG    1        4.547  -4.826  10.024  0.00  0.00    +0.420 HD
ATOM     11  C   LIG    1        6.147  -3.506   9.703  0.00  0.00    +0.150 A 
ATOM     12  C   LIG    1        7.312  -4.111  10.165  0.00  0.00    -0.010 A 
ATOM     13  C   LIG    1        8.521  -3.453  10.073  0.00  0.00    +0.050 A 
ATOM     14  C   LIG    1        8.586  -2.188   9.520  0.00  0.00    -0.010 A 
ATOM     15  C   LIG    1        7.433  -1.577   9.058  0.00  0.00    +0.070 A 
ATOM     16  O   LIG    1        2.786  -3.177   8.998  0.00  0.00    -0.480 OA
ATOM     17  C   LIG    1        6.224  -2.229   9.149  0.00  0.00    -0.130 A 
ATOM     18  C   LIG    1        4.700  -1.539   7.266  0.00  0.00    +0.340 C 
ATOM     19  O   LIG    1        3.055  -1.060   5.027  0.00  0.00    -0.560 OA
ENDROOT
BRANCH   1  23
ATOM     20  C   LIG    1       -0.449   1.111   2.623  0.00  0.00    -0.200 A 
ATOM     21  C   LIG    1        0.109  -0.157   2.830  0.00  0.00    +0.090 A 
ATOM     22  C   LIG    1        0.808  -0.414   3.975  0.00  0.00    +0.010 A 
ATOM     23  C   LIG    1        0.967   0.582   4.935  0.00  0.00    +0.200 A 
ATOM     24  C   LIG    1        0.414   1.843   4.733  0.00  0.00    -0.040 A 
ATOM     25  C   LIG    1       -0.282   2.111   3.589  0.00  0.00    -0.000 A 
ATOM     26  C   LIG    1       -0.875   3.479   3.369  0.00  0.00    +0.110 C 
BRANCH  20  28
ATOM     27  C   LIG    1       -1.257   0.365   0.292  0.00  0.00    +0.060 C 
ATOM     28  C   LIG    1       -1.201   1.393   1.393  0.00  0.00    +0.390 C 
ATOM     29  O   LIG    1       -1.777   2.452   1.264  0.00  0.00    -0.460 OA
ENDBRANCH  20  28
ENDBRANCH   1  23
TORSDOF 2
