REMARK  Name = ZINCtj00000q9j1o.0
REMARK                            x       y       z     vdW  Elec       q    Type
REMARK                         _______ _______ _______ _____ _____    ______ ____
ROOT
ATOM      1  C   LIG    1       -6.765   2.636  -2.250  0.00  0.00    +0.530 C 
ATOM      2  N   LIG    1       -6.931   2.548  -0.915  0.00  0.00    -0.600 N 
ATOM      3  C   LIG    1       -7.893   1.687  -0.194  0.00  0.00    +0.260 C 
ATOM      4  C   LIG    1       -7.689   2.022   1.311  0.00  0.00    +0.280 C 
ATOM      5  C   LIG    1       -7.313   3.546   1.195  0.00  0.00    +0.060 C 
ATOM      6  N   LIG    1       -6.361   1.429   1.646  0.00  0.00    -0.630 N 
ATOM      7  C   LIG    1       -6.121   0.394   2.476  0.00  0.00    +0.530 C 
ATOM      8  O   LIG    1       -7.042  -0.152   3.046  0.00  0.00    -0.500 OA
ATOM      9  C   LIG    1       -5.361   2.201   0.877  0.00  0.00    +0.250 C 
ATOM     10  C   LIG    1       -6.181   3.301   0.134  0.00  0.00    +0.280 C 
ATOM     11  O   LIG    1       -5.993   3.449  -2.713  0.00  0.00    -0.520 OA
ENDROOT
BRANCH   7  12
ATOM     12  C   LIG    1       -4.709  -0.084   2.696  0.00  0.00    +0.280 C 
ATOM     13  C   LIG    1       -4.120  -0.562   1.395  0.00  0.00    -0.030 C 
ATOM     14  C   LIG    1       -3.792  -1.821   1.488  0.00  0.00    +0.030 C 
ATOM     15  C   LIG    1       -4.119  -2.342   2.862  0.00  0.00    +0.300 C 
ATOM     16  N   LIG    1       -4.700  -1.228   3.625  0.00  0.00    -0.600 N 
ATOM     17  C   LIG    1       -5.134  -1.252   4.901  0.00  0.00    +0.690 C 
ATOM     18  O   LIG    1       -5.596  -0.246   5.404  0.00  0.00    -0.550 OA
BRANCH  17  19
ATOM     19  O   LIG    1       -5.056  -2.389   5.617  0.00  0.00    -0.360 OA
BRANCH  19  20
ATOM     20  C   LIG    1       -5.542  -2.340   6.985  0.00  0.00    +0.140 C 
ATOM     21  C   LIG    1       -4.743  -1.302   7.774  0.00  0.00    +0.030 C 
ATOM     22  C   LIG    1       -5.374  -3.715   7.635  0.00  0.00    +0.080 C 
ATOM     23  C   LIG    1       -7.023  -1.954   6.987  0.00  0.00    +0.040 C 
ENDBRANCH  19  20
ENDBRANCH  17  19
ENDBRANCH   7  12
BRANCH   1  24
ATOM     24  C   LIG    1       -7.538   1.724  -3.167  0.00  0.00    +0.170 C 
BRANCH  24  25
ATOM     25  N   LIG    1       -7.579   2.305  -4.515  0.00  0.00    -0.370 N 
ATOM     26  C   LIG    1       -8.243   3.614  -4.464  0.00  0.00    +0.320 C 
ATOM     27  C   LIG    1       -8.325   1.411  -5.411  0.00  0.00    +0.340 C 
ATOM     28  H   LIG    1       -6.638   2.418  -4.861  0.00  0.00    +0.430 HD
ENDBRANCH  24  25
BRANCH  24  30
ATOM     29  C   LIG    1       -5.443   0.514  -3.789  0.00  0.00    +0.040 C 
ATOM     30  C   LIG    1       -6.854   0.356  -3.221  0.00  0.00    +0.080 C 
ENDBRANCH  24  30
ENDBRANCH   1  24
TORSDOF 6
