REMARK  Name = ZINCtV00000L6k7y.0
REMARK                            x       y       z     vdW  Elec       q    Type
REMARK                         _______ _______ _______ _____ _____    ______ ____
ROOT
ATOM      1  C   LIG    1        7.986   2.394  -0.067  0.00  0.00    -0.130 A 
ATOM      2  C   LIG    1        8.847   1.297  -0.150  0.00  0.00    +0.040 A 
ATOM      3  C   LIG    1        8.331   0.022  -0.229  0.00  0.00    +0.020 A 
ATOM      4  C   LIG    1        6.960  -0.180  -0.228  0.00  0.00    +0.040 A 
ATOM      5  C   LIG    1        6.096   0.893  -0.142  0.00  0.00    +0.020 A 
ATOM      6  C   LIG    1        6.597   2.186  -0.066  0.00  0.00    +0.190 A 
ENDROOT
BRANCH   1   8
ATOM      7  O   LIG    1        8.342   4.430   1.016  0.00  0.00    -0.500 OA
ATOM      8  C   LIG    1        8.532   3.760   0.018  0.00  0.00    +0.570 C 
ATOM      9  N   LIG    1        9.241   4.268  -1.010  0.00  0.00    -0.540 N 
ATOM     10  C   LIG    1        9.599   3.425  -2.158  0.00  0.00    +0.270 C 
ATOM     11  C   LIG    1       11.067   3.691  -2.500  0.00  0.00    +0.030 C 
ATOM     12  C   LIG    1       11.223   5.152  -2.921  0.00  0.00    +0.080 C 
ATOM     13  C   LIG    1       10.605   6.065  -1.895  0.00  0.00    -0.110 A 
ATOM     14  C   LIG    1       10.999   7.392  -1.856  0.00  0.00    +0.020 A 
ATOM     15  C   LIG    1       10.444   8.256  -0.932  0.00  0.00    -0.020 A 
ATOM     16  C   LIG    1        9.491   7.801  -0.039  0.00  0.00    +0.020 A 
ATOM     17  C   LIG    1        9.095   6.479  -0.070  0.00  0.00    +0.010 A 
ATOM     18  C   LIG    1        9.653   5.607  -0.998  0.00  0.00    +0.160 A 
ENDBRANCH   1   8
BRANCH   6  19
ATOM     19  N   LIG    1        5.730   3.268   0.016  0.00  0.00    -0.700 N 
ATOM     20  H   LIG    1        5.271   3.460   0.849  0.00  0.00    +0.420 HD
BRANCH  19  21
ATOM     21  C   LIG    1        5.516   4.081  -1.104  0.00  0.00    +0.220 A 
ATOM     22  C   LIG    1        4.575   5.101  -1.052  0.00  0.00    -0.040 A 
ATOM     23  C   LIG    1        4.364   5.902  -2.156  0.00  0.00    +0.090 A 
ATOM     24  C   LIG    1        5.094   5.688  -3.319  0.00  0.00    -0.140 A 
ATOM     25  C   LIG    1        6.031   4.665  -3.372  0.00  0.00    +0.060 A 
ATOM     26  C   LIG    1        6.246   3.867  -2.266  0.00  0.00    -0.050 A 
BRANCH  24  27
ATOM     27  S   LIG    1        4.824   6.710  -4.729  0.00  0.00    -0.100 S 
BRANCH  27  28
ATOM     28  C   LIG    1        5.989   6.041  -5.947  0.00  0.00    +0.430 C 
ATOM     29  F   LIG    1        5.687   4.697  -6.192  0.00  0.00    -0.180 F 
ATOM     30  F   LIG    1        7.293   6.143  -5.450  0.00  0.00    -0.180 F 
ENDBRANCH  27  28
ENDBRANCH  24  27
ENDBRANCH  19  21
ENDBRANCH   6  19
TORSDOF 5
