REMARK  Name = ZINCqH0000035TZ1.0
REMARK                            x       y       z     vdW  Elec       q    Type
REMARK                         _______ _______ _______ _____ _____    ______ ____
ROOT
ATOM      1  C   LIG    1       -2.389  -0.309  -0.089  0.00  0.00    +0.500 C 
ATOM      2  N   LIG    1       -2.421   1.034   0.020  0.00  0.00    -0.660 N 
ATOM      3  H   LIG    1       -3.272   1.494   0.101  0.00  0.00    +0.420 HD
ATOM      4  O   LIG    1       -1.325  -0.891  -0.098  0.00  0.00    -0.460 OA
ENDROOT
BRANCH   2   5
ATOM      5  C   LIG    1       -1.235   1.761   0.016  0.00  0.00    +0.410 A 
ATOM      6  N   LIG    1       -0.087   1.118   0.001  0.00  0.00    -0.480 NA
ATOM      7  C   LIG    1        1.078   1.776   0.002  0.00  0.00    +0.200 A 
ATOM      8  C   LIG    1        2.300   1.083  -0.008  0.00  0.00    +0.080 A 
ATOM      9  C   LIG    1        3.471   1.779  -0.007  0.00  0.00    +0.100 A 
ATOM     10  C   LIG    1        3.479   3.171   0.004  0.00  0.00    -0.050 A 
ATOM     11  C   LIG    1        2.313   3.877   0.013  0.00  0.00    +0.160 A 
ATOM     12  C   LIG    1        1.088   3.192   0.013  0.00  0.00    -0.150 A 
ATOM     13  C   LIG    1       -0.138   3.888   0.023  0.00  0.00    +0.150 A 
ATOM     14  C   LIG    1       -1.291   3.162   0.021  0.00  0.00    -0.050 A 
BRANCH  10  15
ATOM     15  N   LIG    1        4.771   3.894   0.004  0.00  0.00    +0.030 N 
ATOM     16  O   LIG    1        4.787   5.112   0.014  0.00  0.00    -0.160 OA
ATOM     17  O   LIG    1        5.817   3.272  -0.005  0.00  0.00    -0.150 OA
ENDBRANCH  10  15
ENDBRANCH   2   5
BRANCH   1  18
ATOM     18  C   LIG    1       -3.674  -1.087  -0.200  0.00  0.00    +0.070 C 
BRANCH  18  19
ATOM     19  C   LIG    1       -3.359  -2.580  -0.311  0.00  0.00    +0.100 C 
BRANCH  19  23
ATOM     20  C   LIG    1       -7.004  -4.788  -0.626  0.00  0.00    +0.130 A 
ATOM     21  C   LIG    1       -6.367  -4.331  -1.771  0.00  0.00    -0.020 A 
ATOM     22  C   LIG    1       -5.189  -3.617  -1.666  0.00  0.00    +0.060 A 
ATOM     23  C   LIG    1       -4.644  -3.359  -0.422  0.00  0.00    -0.120 A 
ATOM     24  C   LIG    1       -5.274  -3.818   0.720  0.00  0.00    +0.060 A 
ATOM     25  C   LIG    1       -6.456  -4.527   0.621  0.00  0.00    -0.080 A 
BRANCH  20  27
ATOM     26  C   LIG    1       -8.764  -5.929   0.494  0.00  0.00    +0.250 C 
ATOM     27  O   LIG    1       -8.163  -5.490  -0.727  0.00  0.00    -0.320 OA
ENDBRANCH  20  27
ENDBRANCH  19  23
ENDBRANCH  18  19
ENDBRANCH   1  18
TORSDOF 6
