REMARK  Name = ZINCc70000001n9W.0
REMARK                            x       y       z     vdW  Elec       q    Type
REMARK                         _______ _______ _______ _____ _____    ______ ____
ROOT
ATOM      1  N   LIG    1        0.174   1.269   4.777  0.00  0.00    -0.740 N 
ATOM      2  H   LIG    1        0.970   0.723   4.678  0.00  0.00    +0.400 HD
ATOM      3  C   LIG    1       -0.478   1.716   3.686  0.00  0.00    +0.710 C 
ATOM      4  N   LIG    1       -0.025   1.403   2.455  0.00  0.00    -0.750 N 
ATOM      5  H   LIG    1        0.771   0.857   2.356  0.00  0.00    +0.400 HD
ATOM      6  O   LIG    1       -1.474   2.401   3.810  0.00  0.00    -0.590 OA
ENDROOT
BRANCH   1   7
ATOM      7  C   LIG    1       -0.318   1.609   6.115  0.00  0.00    +0.300 C 
BRANCH   7   8
ATOM      8  C   LIG    1        0.596   0.982   7.169  0.00  0.00    +0.180 C 
BRANCH   8  10
ATOM      9  C   LIG    1        2.831   1.053   8.031  0.00  0.00    +0.200 C 
ATOM     10  O   LIG    1        1.895   1.571   7.084  0.00  0.00    -0.390 OA
ENDBRANCH   8  10
ENDBRANCH   7   8
ENDBRANCH   1   7
BRANCH   4  11
ATOM     11  C   LIG    1       -0.733   1.888   1.268  0.00  0.00    +0.290 C 
BRANCH  11  12
ATOM     12  C   LIG    1       -0.017   1.395   0.010  0.00  0.00    +0.380 C 
ATOM     13  F   LIG    1        1.296   1.879  -0.000  0.00  0.00    -0.200 F 
ATOM     14  F   LIG    1        0.002  -0.004   0.002  0.00  0.00    -0.200 F 
ENDBRANCH  11  12
ENDBRANCH   4  11
TORSDOF 5
