REMARK  Name = ZINCpk00000eb0ss.0
REMARK                            x       y       z     vdW  Elec       q    Type
REMARK                         _______ _______ _______ _____ _____    ______ ____
ROOT
ATOM      1  N   LIG    1        0.002  -0.004   0.002  0.00  0.00    -0.670 N 
ATOM      2  H   LIG    1       -0.827  -0.501   0.085  0.00  0.00    +0.410 HD
ATOM      3  C   LIG    1        1.173  -0.661  -0.114  0.00  0.00    +0.560 C 
ATOM      4  O   LIG    1        2.220  -0.043  -0.121  0.00  0.00    -0.510 OA
ENDROOT
BRANCH   1   9
ATOM      5  C   LIG    1       -0.078   5.668   0.008  0.00  0.00    +0.110 C 
ATOM      6  C   LIG    1       -0.057   4.161   0.006  0.00  0.00    +0.000 A 
ATOM      7  C   LIG    1        0.884   3.485  -0.748  0.00  0.00    +0.020 A 
ATOM      8  C   LIG    1        0.906   2.104  -0.752  0.00  0.00    +0.090 A 
ATOM      9  C   LIG    1       -0.018   1.394   0.004  0.00  0.00    +0.120 A 
ATOM     10  C   LIG    1       -0.965   2.076   0.757  0.00  0.00    +0.110 A 
ATOM     11  C   LIG    1       -0.979   3.457   0.759  0.00  0.00    -0.660 A 
BRANCH  11  12
ATOM     12  S   LIG    1       -2.176   4.323   1.719  0.00  0.00    +2.700 S 
ATOM     13  O   LIG    1       -2.942   3.334   2.393  0.00  0.00    -0.960 OA
ATOM     14  O   LIG    1       -2.751   5.298   0.859  0.00  0.00    -0.960 OA
BRANCH  12  15
ATOM     15  N   LIG    1       -1.355   5.158   2.890  0.00  0.00    -1.250 NA
ATOM     16  H   LIG    1       -1.841   5.704   3.528  0.00  0.00    +0.420 HD
ATOM     17  H   LIG    1       -0.388   5.101   2.938  0.00  0.00    +0.420 HD
ENDBRANCH  12  15
ENDBRANCH  11  12
ENDBRANCH   1   9
BRANCH   3  18
ATOM     18  C   LIG    1        1.185  -2.133  -0.234  0.00  0.00    -0.150 A 
ATOM     19  C   LIG    1       -0.017  -2.846  -0.220  0.00  0.00    +0.080 A 
ATOM     20  C   LIG    1       -0.003  -4.218  -0.337  0.00  0.00    +0.000 A 
ATOM     21  C   LIG    1        1.206  -4.895  -0.458  0.00  0.00    +0.180 A 
ATOM     22  C   LIG    1        2.404  -4.189  -0.466  0.00  0.00    +0.030 A 
ATOM     23  C   LIG    1        2.397  -2.816  -0.354  0.00  0.00    +0.120 A 
BRANCH  21  24
ATOM     24  N   LIG    1        1.217  -6.289  -0.571  0.00  0.00    -0.340 N 
ATOM     25  C   LIG    1        0.147  -7.108  -0.573  0.00  0.00    +0.500 A 
ATOM     26  N   LIG    1        0.578  -8.337  -0.701  0.00  0.00    -0.530 NA
ATOM     27  C   LIG    1        1.909  -8.344  -0.773  0.00  0.00    +0.440 A 
ATOM     28  N   LIG    1        2.346  -7.115  -0.698  0.00  0.00    -0.310 NA
ENDBRANCH  21  24
ENDBRANCH   3  18
TORSDOF 5
