REMARK  Name = ZINCnE000001Qgzt.1
REMARK                            x       y       z     vdW  Elec       q    Type
REMARK                         _______ _______ _______ _____ _____    ______ ____
ROOT
ATOM      1  N   LIG    1        4.667   5.259   1.341  0.00  0.00    -0.700 NA
ATOM      2  C   LIG    1        3.402   4.809   1.452  0.00  0.00    +0.650 C 
ATOM      3  N   LIG    1        3.010   3.721   0.760  0.00  0.00    -0.740 N 
ATOM      4  H   LIG    1        3.639   3.262   0.182  0.00  0.00    +0.390 HD
ATOM      5  O   LIG    1        2.613   5.386   2.176  0.00  0.00    -0.620 OA
ENDROOT
BRANCH   1   9
ATOM      6  C   LIG    1        6.149   8.309   3.142  0.00  0.00    -0.320 A 
ATOM      7  C   LIG    1        4.852   8.104   3.451  0.00  0.00    +0.260 A 
ATOM      8  N   LIG    1        4.309   7.068   2.847  0.00  0.00    -0.570 NA
ATOM      9  C   LIG    1        5.071   6.380   2.054  0.00  0.00    +0.360 A 
ATOM     10  S   LIG    1        6.641   7.055   2.006  0.00  0.00    +0.030 S 
BRANCH   6  17
ATOM     11  C   LIG    1        8.742   7.671   4.256  0.00  0.00    +0.100 C 
ATOM     12  C   LIG    1        8.259   9.098   4.205  0.00  0.00    -0.090 A 
ATOM     13  C   LIG    1        9.057  10.116   4.685  0.00  0.00    +0.000 A 
ATOM     14  C   LIG    1        8.612  11.425   4.644  0.00  0.00    -0.030 A 
ATOM     15  C   LIG    1        7.369  11.724   4.116  0.00  0.00    +0.000 A 
ATOM     16  C   LIG    1        6.564  10.717   3.626  0.00  0.00    +0.000 A 
ATOM     17  C   LIG    1        7.006   9.393   3.665  0.00  0.00    +0.040 A 
ENDBRANCH   6  17
ENDBRANCH   1   9
BRANCH   3  18
ATOM     18  C   LIG    1        1.634   3.233   0.881  0.00  0.00    +0.250 C 
BRANCH  18  19
ATOM     19  C   LIG    1        1.453   1.995  -0.001  0.00  0.00    -0.020 C 
ATOM     20  C   LIG    1        2.232   0.792   0.586  0.00  0.00    +0.020 C 
ATOM     21  C   LIG    1        1.486  -0.425  -0.014  0.00  0.00    -0.020 C 
ATOM     22  C   LIG    1        0.002  -0.004   0.002  0.00  0.00    +0.160 C 
ATOM     23  C   LIG    1       -0.019   1.534   0.011  0.00  0.00    +0.050 C 
BRANCH  22  24
ATOM     24  O   LIG    1       -0.659  -0.496  -1.165  0.00  0.00    -0.570 OA
ATOM     25  H   LIG    1       -0.679  -1.461  -1.229  0.00  0.00    +0.370 HD
ENDBRANCH  22  24
ENDBRANCH  18  19
ENDBRANCH   3  18
TORSDOF 5
