REMARK  Name = ZINCrD0000074voI.0
REMARK                            x       y       z     vdW  Elec       q    Type
REMARK                         _______ _______ _______ _____ _____    ______ ____
ROOT
ATOM      1  S   LIG    1       -0.088  -3.216  -0.069  0.00  0.00    +2.700 S 
ATOM      2  O   LIG    1        0.603  -4.457  -0.104  0.00  0.00    -0.950 OA
ATOM      3  O   LIG    1       -1.171  -2.904  -0.934  0.00  0.00    -0.950 OA
ENDROOT
BRANCH   1   4
ATOM      4  C   LIG    1        1.125  -1.963  -0.319  0.00  0.00    -0.690 A 
ATOM      5  C   LIG    1        0.929  -0.973  -1.243  0.00  0.00    +0.190 A 
ATOM      6  C   LIG    1        1.854   0.043  -1.483  0.00  0.00    -0.010 A 
ATOM      7  C   LIG    1        3.037   0.083  -0.770  0.00  0.00    +0.220 A 
ATOM      8  C   LIG    1        3.223  -0.929   0.166  0.00  0.00    -0.130 A 
ATOM      9  C   LIG    1        4.454  -0.776   0.820  0.00  0.00    -0.150 A 
ATOM     10  C   LIG    1        5.038   0.426   0.214  0.00  0.00    +0.580 A 
ATOM     11  O   LIG    1        6.115   0.918   0.495  0.00  0.00    -0.470 OA
ATOM     12  C   LIG    1        4.768  -1.719   1.783  0.00  0.00    +0.130 A 
ATOM     13  C   LIG    1        3.874  -2.753   2.056  0.00  0.00    +0.040 A 
ATOM     14  C   LIG    1        2.673  -2.894   1.412  0.00  0.00    +0.060 A 
ATOM     15  N   LIG    1        4.164   0.894  -0.716  0.00  0.00    -0.550 N 
ATOM     16  C   LIG    1        4.380   2.083  -1.544  0.00  0.00    +0.330 C 
ATOM     17  C   LIG    1        2.316  -1.957   0.427  0.00  0.00    +0.060 A 
ENDBRANCH   1   4
BRANCH   1  18
ATOM     18  N   LIG    1       -0.660  -3.043   1.476  0.00  0.00    -1.110 NA
ATOM     19  H   LIG    1       -0.523  -3.750   2.126  0.00  0.00    +0.420 HD
BRANCH  18  20
ATOM     20  C   LIG    1       -1.373  -1.822   1.861  0.00  0.00    +0.330 C 
BRANCH  20  28
ATOM     21  C   LIG    1        0.025  -1.718   4.387  0.00  0.00    +0.100 C 
ATOM     22  C   LIG    1       -1.452  -2.012   4.356  0.00  0.00    -0.040 A 
ATOM     23  C   LIG    1       -2.138  -2.232   5.535  0.00  0.00    -0.020 A 
ATOM     24  C   LIG    1       -3.496  -2.502   5.506  0.00  0.00    +0.110 A 
ATOM     25  C   LIG    1       -4.165  -2.552   4.295  0.00  0.00    -0.020 A 
ATOM     26  C   LIG    1       -3.478  -2.327   3.117  0.00  0.00    +0.080 A 
ATOM     27  F   LIG    1       -4.168  -2.717   6.658  0.00  0.00    -0.140 F 
ATOM     28  C   LIG    1       -2.122  -2.062   3.147  0.00  0.00    -0.120 A 
ENDBRANCH  20  28
ENDBRANCH  18  20
ENDBRANCH   1  18
TORSDOF 4
