REMARK  Name = ZINCpk00000KfKZp.0
REMARK                            x       y       z     vdW  Elec       q    Type
REMARK                         _______ _______ _______ _____ _____    ______ ____
ROOT
ATOM      1  C   LIG    1        5.852   0.720  -2.938  0.00  0.00    +0.010 C 
ATOM      2  C   LIG    1        5.400   1.977  -3.686  0.00  0.00    +0.030 C 
ATOM      3  C   LIG    1        3.879   2.113  -3.566  0.00  0.00    +0.030 C 
ATOM      4  C   LIG    1        3.492   2.167  -2.086  0.00  0.00    +0.170 C 
ATOM      5  N   LIG    1        3.946   0.942  -1.416  0.00  0.00    -0.530 NA
ATOM      6  C   LIG    1        5.408   0.814  -1.477  0.00  0.00    +0.190 C 
ENDROOT
BRANCH   1  11
ATOM      7  N   LIG    1        8.466  -0.598  -4.608  0.00  0.00    -0.580 N 
ATOM      8  C   LIG    1        8.449  -1.324  -3.485  0.00  0.00    +0.700 C 
ATOM      9  N   LIG    1        7.824  -0.691  -2.471  0.00  0.00    -0.720 N 
ATOM     10  H   LIG    1        7.694  -1.023  -1.569  0.00  0.00    +0.440 HD
ATOM     11  C   LIG    1        7.377   0.608  -3.003  0.00  0.00    +0.130 C 
ATOM     12  C   LIG    1        8.033   1.758  -2.237  0.00  0.00    +0.090 C 
ATOM     13  O   LIG    1        8.943  -2.430  -3.387  0.00  0.00    -0.540 OA
ATOM     14  C   LIG    1        7.849   0.589  -4.443  0.00  0.00    +0.530 C 
ATOM     15  O   LIG    1        7.702   1.459  -5.274  0.00  0.00    -0.460 OA
BRANCH   7  17
ATOM     16  C   LIG    1       10.545  -0.599  -5.897  0.00  0.00    +0.030 C 
ATOM     17  C   LIG    1        9.080  -1.039  -5.863  0.00  0.00    +0.310 C 
ENDBRANCH   7  17
ENDBRANCH   1  11
BRANCH   5  18
ATOM     18  C   LIG    1        3.471   0.895  -0.026  0.00  0.00    +0.330 C 
BRANCH  18  19
ATOM     19  C   LIG    1        1.969   0.776  -0.013  0.00  0.00    +0.180 A 
ATOM     20  N   LIG    1        1.119   1.759   0.001  0.00  0.00    -0.380 NA
ATOM     21  O   LIG    1       -0.016   1.332   0.009  0.00  0.00    +0.080 OA
ATOM     22  C   LIG    1        0.002  -0.004   0.002  0.00  0.00    +0.210 A 
ATOM     23  N   LIG    1        1.262  -0.368  -0.012  0.00  0.00    -0.460 NA
BRANCH  22  24
ATOM     24  C   LIG    1       -1.196  -0.918   0.009  0.00  0.00    +0.070 C 
ATOM     25  C   LIG    1       -2.573  -0.279  -0.181  0.00  0.00    +0.070 C 
ATOM     26  C   LIG    1       -2.159  -0.811   1.193  0.00  0.00    +0.070 C 
ENDBRANCH  22  24
ENDBRANCH  18  19
ENDBRANCH   5  18
TORSDOF 5
