REMARK  Name = ZINCvU0000000Irl.0
REMARK                            x       y       z     vdW  Elec       q    Type
REMARK                         _______ _______ _______ _____ _____    ______ ____
ROOT
ATOM      1  N   LIG    1        3.916   3.615   0.234  0.00  0.00    -0.710 N 
ATOM      2  H   LIG    1        3.012   3.965   0.269  0.00  0.00    +0.410 HD
ATOM      3  C   LIG    1        4.125   2.284   0.270  0.00  0.00    +0.570 C 
ATOM      4  O   LIG    1        5.258   1.845   0.226  0.00  0.00    -0.530 OA
ENDROOT
BRANCH   3   5
ATOM      5  C   LIG    1        2.974   1.355   0.363  0.00  0.00    +0.080 A 
ATOM      6  C   LIG    1        3.198  -0.017   0.400  0.00  0.00    +0.050 A 
ATOM      7  C   LIG    1        2.101  -0.878   0.488  0.00  0.00    +0.010 A 
ATOM      8  C   LIG    1        0.822  -0.318   0.535  0.00  0.00    +0.020 A 
ATOM      9  C   LIG    1        0.686   1.058   0.494  0.00  0.00    +0.280 A 
ATOM     10  N   LIG    1        1.739   1.842   0.411  0.00  0.00    -0.460 NA
BRANCH   7  11
ATOM     11  C   LIG    1        2.289  -2.349   0.530  0.00  0.00    -0.160 A 
ATOM     12  C   LIG    1        2.822  -3.003  -0.566  0.00  0.00    +0.340 A 
ATOM     13  N   LIG    1        3.014  -4.329  -0.579  0.00  0.00    -0.490 N 
ATOM     14  H   LIG    1        3.390  -4.752  -1.367  0.00  0.00    +0.430 HD
ATOM     15  C   LIG    1        2.683  -5.096   0.508  0.00  0.00    +0.240 A 
ATOM     16  N   LIG    1        2.751  -6.385   0.788  0.00  0.00    -0.530 NA
ATOM     17  C   LIG    1        2.290  -6.630   2.015  0.00  0.00    +0.220 A 
ATOM     18  C   LIG    1        1.886  -5.482   2.619  0.00  0.00    -0.090 A 
ATOM     19  C   LIG    1        2.114  -4.441   1.692  0.00  0.00    -0.160 A 
ATOM     20  C   LIG    1        1.931  -3.063   1.681  0.00  0.00    +0.190 A 
ENDBRANCH   7  11
ENDBRANCH   3   5
BRANCH   1  21
ATOM     21  C   LIG    1        5.054   4.533   0.141  0.00  0.00    +0.260 C 
BRANCH  21  26
ATOM     22  C   LIG    1        5.208   8.267  -2.146  0.00  0.00    +0.040 C 
ATOM     23  C   LIG    1        4.640   8.925  -0.886  0.00  0.00    +0.030 C 
ATOM     24  C   LIG    1        5.357   8.380   0.352  0.00  0.00    +0.020 C 
ATOM     25  C   LIG    1        5.728   6.922   0.164  0.00  0.00    +0.030 C 
ATOM     26  C   LIG    1        4.545   5.975   0.117  0.00  0.00    -0.010 C 
ATOM     27  C   LIG    1        3.719   6.196  -1.153  0.00  0.00    +0.070 C 
ATOM     28  C   LIG    1        2.728   7.311  -0.892  0.00  0.00    -0.070 A 
ATOM     29  C   LIG    1        1.381   7.015  -0.784  0.00  0.00    +0.000 A 
ATOM     30  C   LIG    1        0.474   8.032  -0.545  0.00  0.00    +0.000 A 
ATOM     31  C   LIG    1        0.915   9.336  -0.416  0.00  0.00    +0.000 A 
ATOM     32  C   LIG    1        2.263   9.626  -0.526  0.00  0.00    +0.000 A 
ATOM     33  C   LIG    1        3.165   8.604  -0.765  0.00  0.00    -0.070 A 
ENDBRANCH  21  26
ENDBRANCH   1  21
TORSDOF 4
