REMARK  Name = ZINCvU0000000Irl.1
REMARK                            x       y       z     vdW  Elec       q    Type
REMARK                         _______ _______ _______ _____ _____    ______ ____
ROOT
ATOM      1  N   LIG    1        4.707  -3.500   0.185  0.00  0.00    -0.710 N 
ATOM      2  H   LIG    1        5.483  -2.918   0.205  0.00  0.00    +0.410 HD
ATOM      3  C   LIG    1        3.468  -2.973   0.246  0.00  0.00    +0.570 C 
ATOM      4  O   LIG    1        2.496  -3.702   0.221  0.00  0.00    -0.530 OA
ENDROOT
BRANCH   3   5
ATOM      5  C   LIG    1        3.291  -1.505   0.343  0.00  0.00    +0.080 A 
ATOM      6  C   LIG    1        2.009  -0.970   0.406  0.00  0.00    +0.040 A 
ATOM      7  C   LIG    1        1.860   0.417   0.497  0.00  0.00    +0.020 A 
ATOM      8  C   LIG    1        3.013   1.206   0.517  0.00  0.00    -0.010 A 
ATOM      9  C   LIG    1        4.252   0.594   0.456  0.00  0.00    +0.280 A 
ATOM     10  N   LIG    1        4.358  -0.715   0.370  0.00  0.00    -0.460 NA
BRANCH   7  11
ATOM     11  C   LIG    1        0.513   1.035   0.566  0.00  0.00    -0.140 A 
ATOM     12  C   LIG    1       -0.634   0.237   0.540  0.00  0.00    +0.330 A 
ATOM     13  N   LIG    1       -1.836   0.764   0.594  0.00  0.00    -0.490 NA
ATOM     14  C   LIG    1       -2.023   2.075   0.686  0.00  0.00    +0.290 A 
ATOM     15  N   LIG    1       -3.149   2.858   0.760  0.00  0.00    -0.580 N 
ATOM     16  H   LIG    1       -4.060   2.524   0.759  0.00  0.00    +0.420 HD
ATOM     17  C   LIG    1       -2.798   4.179   0.837  0.00  0.00    +0.250 A 
ATOM     18  C   LIG    1       -1.462   4.300   0.816  0.00  0.00    -0.040 A 
ATOM     19  C   LIG    1       -0.915   2.945   0.718  0.00  0.00    -0.150 A 
ATOM     20  C   LIG    1        0.375   2.419   0.657  0.00  0.00    +0.140 A 
ENDBRANCH   7  11
ENDBRANCH   3   5
BRANCH   1  21
ATOM     21  C   LIG    1        4.883  -4.951   0.089  0.00  0.00    +0.260 C 
BRANCH  21  26
ATOM     22  C   LIG    1        7.925  -7.056  -2.259  0.00  0.00    +0.040 C 
ATOM     23  C   LIG    1        8.808  -6.922  -1.017  0.00  0.00    +0.030 C 
ATOM     24  C   LIG    1        7.991  -7.243   0.237  0.00  0.00    +0.020 C 
ATOM     25  C   LIG    1        6.554  -6.787   0.078  0.00  0.00    +0.030 C 
ATOM     26  C   LIG    1        6.376  -5.282   0.035  0.00  0.00    -0.010 C 
ATOM     27  C   LIG    1        6.974  -4.697  -1.247  0.00  0.00    +0.060 C 
ATOM     28  C   LIG    1        8.450  -4.446  -1.015  0.00  0.00    -0.070 A 
ATOM     29  C   LIG    1        8.913  -3.146  -0.916  0.00  0.00    +0.000 A 
ATOM     30  C   LIG    1       10.260  -2.915  -0.704  0.00  0.00    +0.000 A 
ATOM     31  C   LIG    1       11.136  -3.978  -0.593  0.00  0.00    +0.000 A 
ATOM     32  C   LIG    1       10.667  -5.276  -0.694  0.00  0.00    +0.000 A 
ATOM     33  C   LIG    1        9.319  -5.501  -0.906  0.00  0.00    -0.070 A 
ENDBRANCH  21  26
ENDBRANCH   1  21
TORSDOF 4
