REMARK  Name = ZINCpe000000WBef.0
REMARK                            x       y       z     vdW  Elec       q    Type
REMARK                         _______ _______ _______ _____ _____    ______ ____
ROOT
ATOM      1  N   LIG    1        2.320   3.766   0.000  0.00  0.00    -0.460 N 
ATOM      2  C   LIG    1        2.388   4.704  -1.128  0.00  0.00    +0.210 C 
ATOM      3  C   LIG    1        3.650   5.563  -1.000  0.00  0.00    +0.300 C 
ATOM      4  N   LIG    1        4.811   4.669  -0.863  0.00  0.00    -0.620 N 
ATOM      5  C   LIG    1        4.759   3.612   0.159  0.00  0.00    +0.300 C 
ATOM      6  C   LIG    1        5.893   4.816  -1.653  0.00  0.00    +0.520 C 
ATOM      7  O   LIG    1        6.841   4.070  -1.526  0.00  0.00    -0.530 OA
ATOM      8  C   LIG    1        3.453   2.831  -0.016  0.00  0.00    +0.220 C 
ENDROOT
BRANCH   1  13
ATOM      9  C   LIG    1       -1.188   3.152   0.030  0.00  0.00    +0.390 A 
ATOM     10  C   LIG    1       -1.215   1.758   0.017  0.00  0.00    -0.120 A 
ATOM     11  C   LIG    1       -0.013   1.076   0.008  0.00  0.00    +0.380 A 
ATOM     12  N   LIG    1        1.121   1.761   0.001  0.00  0.00    -0.570 NA
ATOM     13  C   LIG    1        1.115   3.086   0.008  0.00  0.00    +0.530 A 
ATOM     14  N   LIG    1       -0.016   3.775   0.022  0.00  0.00    -0.590 NA
BRANCH   9  16
ATOM     15  C   LIG    1       -2.230   5.285   0.051  0.00  0.00    +0.260 C 
ATOM     16  O   LIG    1       -2.343   3.861   0.044  0.00  0.00    -0.300 OA
ENDBRANCH   9  16
ENDBRANCH   1  13
BRANCH   6  17
ATOM     17  C   LIG    1        5.925   5.905  -2.693  0.00  0.00    +0.060 C 
BRANCH  17  18
ATOM     18  C   LIG    1        7.256   5.853  -3.446  0.00  0.00    +0.060 C 
BRANCH  18  19
ATOM     19  C   LIG    1        7.288   6.959  -4.502  0.00  0.00    +0.190 C 
BRANCH  19  20
ATOM     20  C   LIG    1        8.599   6.907  -5.244  0.00  0.00    +0.180 A 
ATOM     21  N   LIG    1        8.854   6.221  -6.332  0.00  0.00    -0.480 NA
ATOM     22  C   LIG    1       10.140   6.479  -6.629  0.00  0.00    +0.170 A 
ATOM     23  N   LIG    1       10.594   7.293  -5.724  0.00  0.00    -0.380 NA
ATOM     24  C   LIG    1       10.914   5.925  -7.798  0.00  0.00    +0.210 C 
ATOM     25  O   LIG    1        9.722   7.556  -4.922  0.00  0.00    +0.080 OA
ENDBRANCH  19  20
ENDBRANCH  18  19
ENDBRANCH  17  18
ENDBRANCH   6  17
TORSDOF 6
