REMARK  Name = ZINCb80000002vPV.0
REMARK                            x       y       z     vdW  Elec       q    Type
REMARK                         _______ _______ _______ _____ _____    ______ ____
ROOT
ATOM      1  C   LIG    1        0.002  -0.004   0.002  0.00  0.00    +0.380 C 
ATOM      2  N   LIG    1       -0.018   1.461   0.010  0.00  0.00    -0.270 N 
ATOM      3  N   LIG    1        1.015   2.229   0.004  0.00  0.00    -0.050 NA
ATOM      4  N   LIG    1        0.650   3.463   0.014  0.00  0.00    -0.250 NA
ATOM      5  C   LIG    1       -0.686   3.519   0.026  0.00  0.00    +0.030 A 
ATOM      6  C   LIG    1       -1.125   2.239   0.019  0.00  0.00    -0.100 A 
ENDROOT
BRANCH   6   7
ATOM      7  C   LIG    1       -2.558   1.773   0.023  0.00  0.00    +0.480 C 
ATOM      8  F   LIG    1       -3.210   2.262  -1.115  0.00  0.00    -0.180 F 
ATOM      9  F   LIG    1       -3.201   2.251   1.170  0.00  0.00    -0.180 F 
ENDBRANCH   6   7
BRANCH   5  10
ATOM     10  C   LIG    1       -1.536   4.763   0.040  0.00  0.00    +0.300 C 
BRANCH  10  11
ATOM     11  O   LIG    1       -1.817   5.164  -1.303  0.00  0.00    -0.560 OA
ATOM     12  H   LIG    1       -2.361   5.960  -1.370  0.00  0.00    +0.390 HD
ENDBRANCH  10  11
ENDBRANCH   5  10
TORSDOF 3
