REMARK  Name = ZINCrD0000073Rr9.1
REMARK                            x       y       z     vdW  Elec       q    Type
REMARK                         _______ _______ _______ _____ _____    ______ ____
ROOT
ATOM      1  C   LIG    1        0.109   1.154   0.044  0.00  0.00    +0.020 C 
ATOM      2  C   LIG    1       -0.735   1.574   1.250  0.00  0.00    +0.160 C 
ENDROOT
BRANCH   2   3
ATOM      3  N   LIG    1       -0.871   3.037   1.266  0.00  0.00    -0.530 NA
ATOM      4  C   LIG    1       -1.759   3.495   0.189  0.00  0.00    +0.190 C 
ATOM      5  C   LIG    1       -1.938   5.012   0.289  0.00  0.00    +0.200 C 
ATOM      6  N   LIG    1       -0.624   5.664   0.198  0.00  0.00    -0.490 N 
ATOM      7  C   LIG    1        0.264   5.206   1.276  0.00  0.00    +0.190 C 
ATOM      8  C   LIG    1        0.443   3.689   1.175  0.00  0.00    +0.180 C 
BRANCH   6   9
ATOM      9  C   LIG    1       -0.754   7.055   0.214  0.00  0.00    +0.110 A 
ATOM     10  C   LIG    1       -0.088   7.805   1.174  0.00  0.00    -0.040 A 
ATOM     11  C   LIG    1       -0.214   9.180   1.184  0.00  0.00    +0.030 A 
ATOM     12  C   LIG    1       -1.011   9.809   0.245  0.00  0.00    -0.030 A 
ATOM     13  C   LIG    1       -1.680   9.065  -0.709  0.00  0.00    +0.020 A 
ATOM     14  C   LIG    1       -1.554   7.690  -0.728  0.00  0.00    -0.020 A 
ENDBRANCH   6   9
ENDBRANCH   2   3
BRANCH   2  15
ATOM     15  C   LIG    1       -0.050   1.111   2.537  0.00  0.00    +0.280 C 
BRANCH  15  16
ATOM     16  N   LIG    1       -0.793   1.616   3.695  0.00  0.00    -0.690 N 
ATOM     17  H   LIG    1       -1.625   2.097   3.564  0.00  0.00    +0.420 HD
BRANCH  16  18
ATOM     18  C   LIG    1       -0.306   1.408   4.976  0.00  0.00    +0.390 A 
ATOM     19  N   LIG    1       -0.979   1.865   6.015  0.00  0.00    -0.510 NA
ATOM     20  C   LIG    1       -0.507   1.662   7.252  0.00  0.00    +0.170 A 
ATOM     21  C   LIG    1       -1.201   2.137   8.377  0.00  0.00    +0.000 A 
ATOM     22  C   LIG    1       -0.696   1.917   9.624  0.00  0.00    +0.140 A 
ATOM     23  C   LIG    1        0.502   1.224   9.800  0.00  0.00    -0.010 A 
ATOM     24  C   LIG    1        1.200   0.750   8.732  0.00  0.00    +0.130 A 
ATOM     25  F   LIG    1       -1.366   2.375  10.704  0.00  0.00    -0.130 F 
ATOM     26  C   LIG    1        0.710   0.959   7.431  0.00  0.00    +0.000 A 
ATOM     27  N   LIG    1        1.377   0.503   6.363  0.00  0.00    -0.390 NA
ATOM     28  C   LIG    1        0.898   0.705   5.159  0.00  0.00    +0.210 A 
ENDBRANCH  16  18
ENDBRANCH  15  16
ENDBRANCH   2  15
TORSDOF 5
