REMARK  Name = ZINCrD000000Dg0u.0
REMARK                            x       y       z     vdW  Elec       q    Type
REMARK                         _______ _______ _______ _____ _____    ______ ____
ROOT
ATOM      1  N   LIG    1       -4.441   0.154  -0.768  0.00  0.00    -0.460 N 
ATOM      2  C   LIG    1       -5.766  -0.474  -0.731  0.00  0.00    +0.220 C 
ATOM      3  C   LIG    1       -6.817   0.633  -0.578  0.00  0.00    +0.200 C 
ATOM      4  N   LIG    1       -6.817   1.440  -1.803  0.00  0.00    -0.470 N 
ATOM      5  C   LIG    1       -5.526   1.834  -2.174  0.00  0.00    +0.110 A 
ATOM      6  C   LIG    1       -5.400   2.889  -3.073  0.00  0.00    +0.000 A 
ATOM      7  C   LIG    1       -4.151   3.316  -3.478  0.00  0.00    +0.000 A 
ATOM      8  C   LIG    1       -3.016   2.696  -2.991  0.00  0.00    +0.000 A 
ATOM      9  C   LIG    1       -3.131   1.650  -2.096  0.00  0.00    -0.020 A 
ATOM     10  C   LIG    1       -4.385   1.214  -1.680  0.00  0.00    +0.120 A 
ENDROOT
BRANCH   1  11
ATOM     11  C   LIG    1       -3.396  -0.840  -1.051  0.00  0.00    +0.330 C 
BRANCH  11  15
ATOM     12  O   LIG    1       -5.627  -0.804  -5.127  0.00  0.00    -0.470 OA
ATOM     13  C   LIG    1       -4.681  -1.218  -4.479  0.00  0.00    +0.530 A 
ATOM     14  N   LIG    1       -4.515  -0.861  -3.191  0.00  0.00    -0.580 NA
ATOM     15  C   LIG    1       -3.509  -1.294  -2.483  0.00  0.00    +0.410 A 
ATOM     16  N   LIG    1       -2.567  -2.124  -2.965  0.00  0.00    -0.620 N 
ATOM     17  H   LIG    1       -1.841  -2.413  -2.390  0.00  0.00    +0.420 HD
ATOM     18  C   LIG    1       -2.626  -2.568  -4.270  0.00  0.00    +0.180 A 
ATOM     19  C   LIG    1       -1.671  -3.425  -4.799  0.00  0.00    -0.020 A 
ATOM     20  C   LIG    1       -1.776  -3.839  -6.110  0.00  0.00    +0.080 A 
ATOM     21  C   LIG    1       -2.827  -3.409  -6.907  0.00  0.00    -0.020 A 
ATOM     22  C   LIG    1       -3.785  -2.558  -6.401  0.00  0.00    +0.110 A 
ATOM     23  C   LIG    1       -3.692  -2.131  -5.078  0.00  0.00    -0.210 A 
ENDBRANCH  11  15
ENDBRANCH   1  11
BRANCH   4  24
ATOM     24  C   LIG    1       -7.704   2.603  -1.668  0.00  0.00    +0.220 C 
BRANCH  24  25
ATOM     25  C   LIG    1       -9.162   2.145  -1.752  0.00  0.00    +0.460 C 
ATOM     26  F   LIG    1       -9.352   1.406  -2.924  0.00  0.00    -0.170 F 
ATOM     27  F   LIG    1      -10.002   3.263  -1.763  0.00  0.00    -0.180 F 
ATOM     28  F   LIG    1       -9.464   1.346  -0.643  0.00  0.00    -0.180 F 
ENDBRANCH  24  25
ENDBRANCH   4  24
TORSDOF 4
