REMARK  Name = ZINCqH0000031JP9.0
REMARK                            x       y       z     vdW  Elec       q    Type
REMARK                         _______ _______ _______ _____ _____    ______ ____
ROOT
ATOM      1  C   LIG    1        7.148   5.200   0.041  0.00  0.00    +0.470 C 
ATOM      2  N   LIG    1        6.693   4.207  -0.748  0.00  0.00    -0.670 NA
ATOM      3  O   LIG    1        6.571   5.467   1.074  0.00  0.00    -0.590 OA
ENDROOT
BRANCH   2   4
ATOM      4  C   LIG    1        5.562   3.487  -0.378  0.00  0.00    +0.280 A 
ATOM      5  N   LIG    1        4.862   3.679   0.700  0.00  0.00    -0.360 NA
ATOM      6  N   LIG    1        3.856   2.938   0.884  0.00  0.00    -0.220 NA
ATOM      7  C   LIG    1        3.622   2.042  -0.022  0.00  0.00    -0.060 A 
ATOM      8  S   LIG    1        4.862   2.201  -1.266  0.00  0.00    +0.020 S 
BRANCH   7   9
ATOM      9  C   LIG    1        2.490   1.048  -0.016  0.00  0.00    +0.080 C 
ATOM     10  C   LIG    1        2.571   0.176  -1.271  0.00  0.00    +0.060 C 
ATOM     11  C   LIG    1        2.595   0.162   1.227  0.00  0.00    +0.050 C 
BRANCH   9  12
ATOM     12  C   LIG    1        1.175   1.783   0.000  0.00  0.00    -0.060 A 
ATOM     13  C   LIG    1       -0.013   1.076   0.008  0.00  0.00    +0.010 A 
ATOM     14  C   LIG    1       -1.219   1.751   0.017  0.00  0.00    +0.000 A 
ATOM     15  C   LIG    1       -1.238   3.133   0.030  0.00  0.00    -0.010 A 
ATOM     16  C   LIG    1       -0.050   3.840   0.022  0.00  0.00    +0.000 A 
ATOM     17  C   LIG    1        1.156   3.165   0.008  0.00  0.00    +0.030 A 
ENDBRANCH   9  12
ENDBRANCH   7   9
ENDBRANCH   2   4
BRANCH   1  19
ATOM     18  C   LIG    1        9.566   5.029  -0.481  0.00  0.00    +0.050 C 
ATOM     19  C   LIG    1        8.373   5.980  -0.360  0.00  0.00    -0.030 C 
ATOM     20  C   LIG    1        8.126   6.662  -1.708  0.00  0.00    +0.050 C 
BRANCH  19  21
ATOM     21  C   LIG    1        8.668   7.026   0.685  0.00  0.00    -0.030 C 
ATOM     22  C   LIG    1        9.809   6.984   1.305  0.00  0.00    -0.100 C 
ATOM     23  C   LIG    1       10.205   7.972   2.363  0.00  0.00    +0.310 C 
ATOM     24  N   LIG    1        9.362   9.171   2.288  0.00  0.00    -0.510 N 
ATOM     25  C   LIG    1        7.948   8.762   2.301  0.00  0.00    +0.260 C 
ATOM     26  H   LIG    1        9.549   9.766   3.081  0.00  0.00    +0.430 HD
ATOM     27  H   LIG    1        9.561   9.671   1.434  0.00  0.00    +0.430 HD
ATOM     28  C   LIG    1        7.628   8.073   0.973  0.00  0.00    +0.120 C 
ENDBRANCH  19  21
ENDBRANCH   1  19
TORSDOF 5
