REMARK  Name = ZINCtV00000L6klP.0
REMARK                            x       y       z     vdW  Elec       q    Type
REMARK                         _______ _______ _______ _____ _____    ______ ____
ROOT
ATOM      1  N   LIG    1       -3.700   4.311  -2.858  0.00  0.00    -0.740 N 
ATOM      2  H   LIG    1       -3.136   3.746  -3.410  0.00  0.00    +0.390 HD
ATOM      3  C   LIG    1       -3.325   4.612  -1.599  0.00  0.00    +0.710 C 
ATOM      4  N   LIG    1       -2.168   4.127  -1.107  0.00  0.00    -0.740 N 
ATOM      5  H   LIG    1       -1.605   3.562  -1.659  0.00  0.00    +0.390 HD
ATOM      6  O   LIG    1       -4.031   5.319  -0.907  0.00  0.00    -0.580 OA
ENDROOT
BRANCH   4   7
ATOM      7  C   LIG    1       -1.760   4.453   0.262  0.00  0.00    +0.270 C 
ATOM      8  C   LIG    1       -0.961   5.770   0.278  0.00  0.00    +0.010 C 
ATOM      9  C   LIG    1        0.440   5.429   0.829  0.00  0.00    +0.020 C 
ATOM     10  C   LIG    1        0.219   4.139   1.657  0.00  0.00    +0.050 C 
ATOM     11  C   LIG    1       -0.817   3.361   0.807  0.00  0.00    +0.010 C 
BRANCH  11  12
ATOM     12  C   LIG    1       -1.580   2.387   1.668  0.00  0.00    -0.020 A 
ATOM     13  C   LIG    1       -2.270   2.839   2.777  0.00  0.00    +0.020 A 
ATOM     14  C   LIG    1       -2.970   1.945   3.567  0.00  0.00    +0.050 A 
ATOM     15  C   LIG    1       -2.980   0.601   3.247  0.00  0.00    +0.020 A 
ATOM     16  C   LIG    1       -2.293   0.150   2.135  0.00  0.00    +0.070 A 
ATOM     17  C   LIG    1       -1.589   1.042   1.348  0.00  0.00    -0.180 A 
BRANCH  17  18
ATOM     18  C   LIG    1       -0.836   0.550   0.139  0.00  0.00    +0.510 C 
ATOM     19  F   LIG    1       -1.339   1.174  -1.008  0.00  0.00    -0.180 F 
ATOM     20  F   LIG    1        0.522   0.855   0.279  0.00  0.00    -0.170 F 
ATOM     21  F   LIG    1       -0.994  -0.835   0.024  0.00  0.00    -0.180 F 
ENDBRANCH  17  18
ENDBRANCH  11  12
ENDBRANCH   4   7
BRANCH   1  23
ATOM     22  C   LIG    1       -6.121   4.369  -2.518  0.00  0.00    +0.050 C 
ATOM     23  C   LIG    1       -4.957   4.838  -3.394  0.00  0.00    +0.240 C 
ATOM     24  C   LIG    1       -4.908   6.367  -3.400  0.00  0.00    +0.060 C 
BRANCH  23  25
ATOM     25  C   LIG    1       -5.154   4.335  -4.801  0.00  0.00    -0.070 A 
ATOM     26  C   LIG    1       -5.945   5.046  -5.684  0.00  0.00    +0.040 A 
ATOM     27  C   LIG    1       -6.121   4.589  -6.977  0.00  0.00    +0.040 A 
ATOM     28  C   LIG    1       -5.516   3.415  -7.383  0.00  0.00    +0.030 A 
ATOM     29  C   LIG    1       -4.729   2.700  -6.498  0.00  0.00    -0.030 A 
ATOM     30 CL   LIG    1       -3.968   1.226  -7.008  0.00  0.00    -0.070 Cl
ATOM     31  C   LIG    1       -4.548   3.161  -5.206  0.00  0.00    +0.020 A 
ENDBRANCH  23  25
ENDBRANCH   1  23
TORSDOF 5
