REMARK  Name = ZINCrH000004sMPZ.0
REMARK                            x       y       z     vdW  Elec       q    Type
REMARK                         _______ _______ _______ _____ _____    ______ ____
ROOT
ATOM      1  C   LIG    1       -3.565   2.014  -0.538  0.00  0.00    +0.570 C 
ATOM      2  N   LIG    1       -3.640   3.222   0.055  0.00  0.00    -0.660 N 
ATOM      3  H   LIG    1       -2.874   3.576   0.533  0.00  0.00    +0.420 HD
ATOM      4  O   LIG    1       -4.550   1.533  -1.065  0.00  0.00    -0.510 OA
ENDROOT
BRANCH   2   5
ATOM      5  C   LIG    1       -4.824   3.966  -0.020  0.00  0.00    +0.150 A 
ATOM      6  C   LIG    1       -4.769   5.351  -0.103  0.00  0.00    +0.010 A 
ATOM      7  C   LIG    1       -5.937   6.086  -0.182  0.00  0.00    +0.060 A 
ATOM      8  C   LIG    1       -7.165   5.445  -0.169  0.00  0.00    +0.020 A 
ATOM      9  O   LIG    1       -8.440   5.932  -0.229  0.00  0.00    -0.290 OA
ATOM     10  C   LIG    1       -9.280   4.858   0.217  0.00  0.00    +0.270 C 
ATOM     11  O   LIG    1       -8.533   3.671  -0.086  0.00  0.00    -0.290 OA
ATOM     12  C   LIG    1      -10.600   4.863  -0.547  0.00  0.00    +0.060 C 
ATOM     13  C   LIG    1      -11.370   6.148  -0.232  0.00  0.00    +0.030 C 
ATOM     14  C   LIG    1      -11.633   6.227   1.273  0.00  0.00    +0.010 C 
ATOM     15  C   LIG    1      -10.300   6.246   2.025  0.00  0.00    +0.030 C 
ATOM     16  C   LIG    1       -9.525   4.962   1.718  0.00  0.00    +0.010 C 
ATOM     17  C   LIG    1       -7.223   4.055  -0.080  0.00  0.00    +0.050 A 
ATOM     18  C   LIG    1       -6.053   3.319  -0.005  0.00  0.00    +0.050 A 
ENDBRANCH   2   5
BRANCH   1  26
ATOM     19  C   LIG    1       -1.552  -2.811  -2.412  0.00  0.00    +0.200 C 
ATOM     20  C   LIG    1       -0.667  -1.845  -1.668  0.00  0.00    +0.160 A 
ATOM     21  N   LIG    1        0.600  -2.012  -1.391  0.00  0.00    -0.240 NA
ATOM     22  N   LIG    1        1.054  -0.996  -0.745  0.00  0.00    -0.280 NA
ATOM     23  C   LIG    1        0.086  -0.112  -0.572  0.00  0.00    +0.200 A 
ATOM     24  C   LIG    1        0.031   1.150   0.054  0.00  0.00    +0.100 A 
ATOM     25  C   LIG    1       -1.141   1.834   0.072  0.00  0.00    +0.070 A 
ATOM     26  C   LIG    1       -2.288   1.275  -0.547  0.00  0.00    -0.160 A 
ATOM     27  C   LIG    1       -2.212   0.051  -1.147  0.00  0.00    +0.350 A 
ATOM     28  N   LIG    1       -1.040  -0.636  -1.161  0.00  0.00    -0.400 N 
ENDBRANCH   1  26
TORSDOF 2
