REMARK  Name = ZINCpe000000Ubvx.0
REMARK                            x       y       z     vdW  Elec       q    Type
REMARK                         _______ _______ _______ _____ _____    ______ ____
ROOT
ATOM      1  C   LIG    1       -0.016   1.344   0.009  0.00  0.00    +0.500 C 
ATOM      2  N   LIG    1        0.002  -0.004   0.002  0.00  0.00    -0.720 N 
ATOM      3  H   LIG    1       -0.831  -0.500   0.007  0.00  0.00    +0.410 HD
ATOM      4  O   LIG    1        1.026   1.964   0.003  0.00  0.00    -0.520 OA
ENDROOT
BRANCH   1   5
ATOM      5  C   LIG    1       -1.331   2.079   0.020  0.00  0.00    +0.360 C 
BRANCH   5  10
ATOM      6  C   LIG    1       -0.716   5.690  -0.598  0.00  0.00    +0.120 C 
ATOM      7  N   LIG    1       -0.730   5.558   0.869  0.00  0.00    -0.720 N 
ATOM      8  H   LIG    1       -0.605   6.269   1.516  0.00  0.00    +0.440 HD
ATOM      9  C   LIG    1       -0.956   4.259   1.137  0.00  0.00    +0.710 C 
ATOM     10  N   LIG    1       -1.083   3.523   0.026  0.00  0.00    -0.560 N 
ATOM     11  O   LIG    1       -1.034   3.804   2.261  0.00  0.00    -0.540 OA
ATOM     12  C   LIG    1       -1.835   6.622  -1.066  0.00  0.00    +0.090 C 
ATOM     13  C   LIG    1       -0.960   4.275  -1.085  0.00  0.00    +0.540 C 
ATOM     14  O   LIG    1       -1.030   3.899  -2.235  0.00  0.00    -0.460 OA
BRANCH   6  16
ATOM     15  C   LIG    1        0.920   7.574  -0.472  0.00  0.00    +0.040 C 
ATOM     16  C   LIG    1        0.645   6.197  -1.079  0.00  0.00    +0.050 C 
ENDBRANCH   6  16
ENDBRANCH   5  10
ENDBRANCH   1   5
BRANCH   2  17
ATOM     17  C   LIG    1        1.281  -0.719  -0.014  0.00  0.00    +0.320 C 
BRANCH  17  18
ATOM     18  C   LIG    1        1.025  -2.204  -0.020  0.00  0.00    -0.080 A 
ATOM     19  C   LIG    1        0.926  -2.891   1.178  0.00  0.00    +0.030 A 
ATOM     20  C   LIG    1        0.687  -4.249   1.180  0.00  0.00    +0.080 A 
ATOM     21  C   LIG    1        0.556  -4.934  -0.030  0.00  0.00    -0.120 A 
ATOM     22  C   LIG    1        0.663  -4.236  -1.234  0.00  0.00    +0.090 A 
ATOM     23  C   LIG    1        0.897  -2.877  -1.222  0.00  0.00    +0.030 A 
BRANCH  21  24
ATOM     24  C   LIG    1        0.306  -6.390  -0.035  0.00  0.00    +0.510 C 
ATOM     25  O   LIG    1        0.194  -6.983  -1.089  0.00  0.00    -0.500 OA
BRANCH  24  26
ATOM     26  O   LIG    1        0.204  -7.060   1.129  0.00  0.00    -0.350 OA
ATOM     27  C   LIG    1       -0.042  -8.489   1.048  0.00  0.00    +0.290 C 
ENDBRANCH  24  26
ENDBRANCH  21  24
ENDBRANCH  17  18
ENDBRANCH   2  17
TORSDOF 7
