REMARK  Name = ZINCvU0000000HKi.0
REMARK                            x       y       z     vdW  Elec       q    Type
REMARK                         _______ _______ _______ _____ _____    ______ ____
ROOT
ATOM      1  N   LIG    1        6.765  -2.638   7.441  0.00  0.00    -0.380 N 
ATOM      2  N   LIG    1        5.792  -2.026   8.241  0.00  0.00    -0.230 NA
ATOM      3  C   LIG    1        4.857  -1.521   7.488  0.00  0.00    +0.300 A 
ATOM      4  C   LIG    1        5.176  -1.780   6.138  0.00  0.00    -0.180 A 
ATOM      5  C   LIG    1        4.545  -1.478   4.909  0.00  0.00    -0.000 A 
ATOM      6  C   LIG    1        5.158  -1.906   3.738  0.00  0.00    -0.030 A 
ATOM      7  C   LIG    1        6.370  -2.604   3.816  0.00  0.00    +0.270 A 
ATOM      8  N   LIG    1        6.938  -2.872   4.983  0.00  0.00    -0.470 NA
ATOM      9  C   LIG    1        6.393  -2.492   6.129  0.00  0.00    +0.320 A 
ENDROOT
BRANCH   7  10
ATOM     10  C   LIG    1        7.026  -3.055   2.573  0.00  0.00    -0.170 A 
ATOM     11  C   LIG    1        8.191  -3.733   2.508  0.00  0.00    +0.080 A 
ATOM     12  C   LIG    1        8.602  -4.050   1.232  0.00  0.00    +0.010 A 
ATOM     13  C   LIG    1        7.792  -3.630   0.254  0.00  0.00    -0.020 A 
ATOM     14  S   LIG    1        6.413  -2.786   0.946  0.00  0.00    +0.140 S 
ENDBRANCH   7  10
BRANCH   5  15
ATOM     15  C   LIG    1        3.267  -0.735   4.871  0.00  0.00    +0.560 C 
ATOM     16  N   LIG    1        2.683  -0.457   3.688  0.00  0.00    -0.660 N 
ATOM     17  H   LIG    1        3.060  -0.810   2.867  0.00  0.00    +0.410 HD
ATOM     18  O   LIG    1        2.744  -0.373   5.907  0.00  0.00    -0.500 OA
BRANCH  16  19
ATOM     19  C   LIG    1        1.534   0.341   3.645  0.00  0.00    +0.140 A 
ATOM     20  C   LIG    1        1.367   1.368   4.564  0.00  0.00    +0.040 A 
ATOM     21  C   LIG    1        0.233   2.157   4.523  0.00  0.00    -0.010 A 
ATOM     22  C   LIG    1       -0.741   1.923   3.566  0.00  0.00    +0.110 A 
ATOM     23  C   LIG    1       -0.577   0.893   2.643  0.00  0.00    +0.100 A 
ATOM     24  C   LIG    1        0.557   0.100   2.688  0.00  0.00    -0.030 A 
BRANCH  22  25
ATOM     25  O   LIG    1       -1.857   2.699   3.527  0.00  0.00    -0.310 OA
ATOM     26  C   LIG    1       -1.960   3.737   4.504  0.00  0.00    +0.240 C 
ENDBRANCH  22  25
BRANCH  23  27
ATOM     27  O   LIG    1       -1.532   0.663   1.703  0.00  0.00    -0.310 OA
BRANCH  27  28
ATOM     28  C   LIG    1       -1.297  -0.410   0.789  0.00  0.00    +0.590 C 
ATOM     29  F   LIG    1       -0.118  -0.165   0.075  0.00  0.00    -0.200 F 
ATOM     30  F   LIG    1       -1.172  -1.609   1.499  0.00  0.00    -0.200 F 
ENDBRANCH  27  28
ENDBRANCH  23  27
ENDBRANCH  16  19
ENDBRANCH   5  15
BRANCH   1  32
ATOM     31  C   LIG    1        7.664  -4.797   8.156  0.00  0.00    +0.030 C 
ATOM     32  C   LIG    1        7.971  -3.316   7.922  0.00  0.00    +0.340 C 
ENDBRANCH   1  32
TORSDOF 7
