REMARK  Name = ZINCpe00000MJIha.0
REMARK                            x       y       z     vdW  Elec       q    Type
REMARK                         _______ _______ _______ _____ _____    ______ ____
ROOT
ATOM      1  C   LIG    1        1.258   1.972   0.001  0.00  0.00    -0.050 A 
ATOM      2  C   LIG    1        1.242   3.367   0.003  0.00  0.00    +0.070 A 
ATOM      3  C   LIG    1        2.431   4.068   0.000  0.00  0.00    +0.100 A 
ATOM      4  C   LIG    1        3.637   3.389  -0.014  0.00  0.00    -0.660 A 
ATOM      5  C   LIG    1        3.659   2.006  -0.022  0.00  0.00    +0.110 A 
ATOM      6  C   LIG    1        2.477   1.294  -0.015  0.00  0.00    +0.050 A 
ENDROOT
BRANCH   4   7
ATOM      7  S   LIG    1        5.151   4.291  -0.024  0.00  0.00    +2.690 S 
ATOM      8  O   LIG    1        6.140   3.420   0.506  0.00  0.00    -0.950 OA
ATOM      9  O   LIG    1        4.861   5.567   0.530  0.00  0.00    -0.950 OA
BRANCH   7  10
ATOM     10  N   LIG    1        5.557   4.550  -1.608  0.00  0.00    -0.990 NA
ATOM     11  C   LIG    1        5.093   5.754  -2.312  0.00  0.00    +0.300 C 
ATOM     12  C   LIG    1        4.383   5.328  -3.601  0.00  0.00    +0.020 C 
ATOM     13  C   LIG    1        5.318   4.439  -4.424  0.00  0.00    +0.000 C 
ATOM     14  C   LIG    1        5.663   3.180  -3.625  0.00  0.00    +0.150 C 
ATOM     15  C   LIG    1        6.392   3.584  -2.335  0.00  0.00    +0.320 C 
BRANCH  14  16
ATOM     16  O   LIG    1        6.510   2.336  -4.407  0.00  0.00    -0.560 OA
ATOM     17  H   LIG    1        6.115   2.045  -5.240  0.00  0.00    +0.380 HD
ENDBRANCH  14  16
ENDBRANCH   7  10
ENDBRANCH   4   7
BRANCH   1  18
ATOM     18  C   LIG    1       -0.014   1.214   0.009  0.00  0.00    +0.540 C 
ATOM     19  O   LIG    1        0.002  -0.004   0.002  0.00  0.00    -0.560 OA
BRANCH  18  25
ATOM     20  C   LIG    1       -5.955   0.757   0.035  0.00  0.00    +0.380 C 
ATOM     21  N   LIG    1       -4.494   0.648   0.027  0.00  0.00    -0.390 N 
ATOM     22  C   LIG    1       -3.780  -0.514   0.017  0.00  0.00    +0.350 A 
ATOM     23  C   LIG    1       -2.462  -0.218   0.006  0.00  0.00    -0.110 A 
ATOM     24  C   LIG    1       -2.325   1.186   0.019  0.00  0.00    +0.480 A 
ATOM     25  N   LIG    1       -1.181   1.867   0.018  0.00  0.00    -0.670 NA
ATOM     26  N   LIG    1       -3.591   1.720   0.028  0.00  0.00    -0.470 N 
ATOM     27  H   LIG    1       -3.817   2.663   0.034  0.00  0.00    +0.450 HD
ENDBRANCH  18  25
ENDBRANCH   1  18
TORSDOF 5
