REMARK  Name = ZINCqH00000387Qc.0
REMARK                            x       y       z     vdW  Elec       q    Type
REMARK                         _______ _______ _______ _____ _____    ______ ____
ROOT
ATOM      1  C   LIG    1        3.448   3.498  -0.113  0.00  0.00    +0.570 C 
ATOM      2  N   LIG    1        3.511   2.155  -0.019  0.00  0.00    -0.670 N 
ATOM      3  H   LIG    1        4.372   1.714   0.048  0.00  0.00    +0.420 HD
ATOM      4  O   LIG    1        2.369   4.059  -0.101  0.00  0.00    -0.500 OA
ENDROOT
BRANCH   1  10
ATOM      5  C   LIG    1        8.424   3.701  -0.373  0.00  0.00    +0.100 C 
ATOM      6  C   LIG    1        7.085   4.393  -0.357  0.00  0.00    -0.080 A 
ATOM      7  C   LIG    1        7.021   5.774  -0.453  0.00  0.00    +0.060 A 
ATOM      8  C   LIG    1        5.801   6.420  -0.440  0.00  0.00    +0.030 A 
ATOM      9  C   LIG    1        4.627   5.686  -0.335  0.00  0.00    +0.210 A 
ATOM     10  C   LIG    1        4.688   4.288  -0.232  0.00  0.00    -0.140 A 
ATOM     11  C   LIG    1        5.930   3.649  -0.247  0.00  0.00    +0.050 A 
BRANCH   9  12
ATOM     12  N   LIG    1        3.395   6.336  -0.328  0.00  0.00    -0.570 N 
ATOM     13  C   LIG    1        2.715   6.809   0.884  0.00  0.00    +0.270 C 
ATOM     14  C   LIG    1        1.653   7.819   0.391  0.00  0.00    +0.040 C 
ATOM     15  C   LIG    1        1.397   7.325  -1.052  0.00  0.00    +0.060 C 
ATOM     16  C   LIG    1        2.672   6.604  -1.429  0.00  0.00    +0.530 C 
ATOM     17  O   LIG    1        2.996   6.312  -2.561  0.00  0.00    -0.530 OA
ENDBRANCH   9  12
ENDBRANCH   1  10
BRANCH   2  18
ATOM     18  C   LIG    1        2.335   1.398  -0.019  0.00  0.00    +0.130 A 
ATOM     19  C   LIG    1        1.224   1.818  -0.745  0.00  0.00    +0.080 A 
ATOM     20  C   LIG    1        0.082   1.034  -0.714  0.00  0.00    +0.060 A 
ATOM     21  C   LIG    1        0.083  -0.130   0.032  0.00  0.00    +0.020 A 
ATOM     22  N   LIG    1        1.152  -0.500   0.710  0.00  0.00    -0.420 NA
ATOM     23  C   LIG    1        2.258   0.216   0.707  0.00  0.00    +0.250 A 
BRANCH  21  24
ATOM     24  C   LIG    1       -1.155  -0.988   0.071  0.00  0.00    +0.520 C 
ATOM     25  F   LIG    1       -1.407  -1.502  -1.206  0.00  0.00    -0.170 F 
ATOM     26  F   LIG    1       -2.246  -0.215   0.485  0.00  0.00    -0.170 F 
ATOM     27  F   LIG    1       -0.964  -2.043   0.970  0.00  0.00    -0.160 F 
ENDBRANCH  21  24
ENDBRANCH   2  18
TORSDOF 4
