REMARK  Name = ZINCqH0000037LeP.0
REMARK                            x       y       z     vdW  Elec       q    Type
REMARK                         _______ _______ _______ _____ _____    ______ ____
ROOT
ATOM      1  C   LIG    1       -2.048   2.109   1.227  0.00  0.00    +0.590 C 
ATOM      2  N   LIG    1       -0.704   1.998   1.216  0.00  0.00    -0.730 N 
ATOM      3  H   LIG    1       -0.192   2.232   2.006  0.00  0.00    +0.390 HD
ATOM      4  O   LIG    1       -2.691   1.816   0.237  0.00  0.00    -0.520 OA
ENDROOT
BRANCH   1  11
ATOM      5  C   LIG    1       -4.134   4.595   7.921  0.00  0.00    +0.090 C 
ATOM      6  C   LIG    1       -4.194   4.106   6.497  0.00  0.00    -0.040 A 
ATOM      7  C   LIG    1       -5.425   3.983   5.864  0.00  0.00    -0.020 A 
ATOM      8  C   LIG    1       -5.502   3.542   4.575  0.00  0.00    -0.020 A 
ATOM      9  C   LIG    1       -4.332   3.210   3.881  0.00  0.00    -0.130 A 
ATOM     10  C   LIG    1       -4.079   2.741   2.569  0.00  0.00    +0.070 A 
ATOM     11  C   LIG    1       -2.736   2.583   2.437  0.00  0.00    +0.000 A 
ATOM     12  N   LIG    1       -2.119   2.945   3.619  0.00  0.00    -0.580 N 
ATOM     13  H   LIG    1       -1.164   2.927   3.787  0.00  0.00    +0.420 HD
ATOM     14  C   LIG    1       -3.083   3.333   4.520  0.00  0.00    +0.130 A 
ATOM     15  C   LIG    1       -6.843   3.412   3.900  0.00  0.00    +0.090 C 
ATOM     16  C   LIG    1       -3.030   3.785   5.836  0.00  0.00    -0.030 A 
ENDBRANCH   1  11
BRANCH   2  17
ATOM     17  C   LIG    1       -0.019   1.526   0.010  0.00  0.00    +0.290 C 
ATOM     18  C   LIG    1        0.002  -0.004   0.002  0.00  0.00    +0.040 C 
BRANCH  17  19
ATOM     19  C   LIG    1        1.395   2.047  -0.000  0.00  0.00    -0.110 A 
ATOM     20  C   LIG    1        2.128   2.086   1.171  0.00  0.00    +0.050 A 
ATOM     21  C   LIG    1        3.424   2.562   1.168  0.00  0.00    +0.000 A 
ATOM     22  C   LIG    1        4.002   3.007  -0.018  0.00  0.00    +0.150 A 
ATOM     23  N   LIG    1        5.272   3.524  -0.276  0.00  0.00    -0.660 N 
ATOM     24  H   LIG    1        5.956   3.641   0.402  0.00  0.00    +0.410 HD
ATOM     25  C   LIG    1        5.440   3.840  -1.572  0.00  0.00    +0.530 C 
ATOM     26  C   LIG    1        4.146   3.505  -2.283  0.00  0.00    +0.140 C 
ATOM     27  O   LIG    1        6.440   4.306  -2.076  0.00  0.00    -0.500 OA
ATOM     28  C   LIG    1        3.255   2.963  -1.189  0.00  0.00    -0.140 A 
ATOM     29  C   LIG    1        1.965   2.484  -1.184  0.00  0.00    +0.090 A 
ENDBRANCH  17  19
ENDBRANCH   2  17
TORSDOF 3
