REMARK  Name = ZINCrH000004sXrE.0
REMARK                            x       y       z     vdW  Elec       q    Type
REMARK                         _______ _______ _______ _____ _____    ______ ____
ROOT
ATOM      1  C   LIG    1        0.900   2.345   1.914  0.00  0.00    +0.140 A 
ATOM      2  C   LIG    1        1.849   1.331   1.946  0.00  0.00    +0.040 A 
ATOM      3  C   LIG    1        1.469   0.042   2.265  0.00  0.00    +0.050 A 
ATOM      4  C   LIG    1        0.146  -0.240   2.551  0.00  0.00    +0.020 A 
ATOM      5  C   LIG    1       -0.802   0.767   2.519  0.00  0.00    -0.080 A 
ATOM      6  C   LIG    1       -0.429   2.058   2.201  0.00  0.00    +0.000 A 
ENDROOT
BRANCH   1   8
ATOM      7  C   LIG    1        2.481   4.120   1.986  0.00  0.00    +0.590 C 
ATOM      8  N   LIG    1        1.281   3.651   1.591  0.00  0.00    -0.680 N 
ATOM      9  H   LIG    1        0.681   4.220   1.083  0.00  0.00    +0.410 HD
ATOM     10  O   LIG    1        3.264   3.384   2.558  0.00  0.00    -0.500 OA
BRANCH   7  13
ATOM     11  C   LIG    1        0.835   6.130   0.311  0.00  0.00    +0.330 C 
ATOM     12  N   LIG    1        2.108   6.413   0.978  0.00  0.00    -0.420 N 
ATOM     13  C   LIG    1        2.844   5.515   1.726  0.00  0.00    -0.020 A 
ATOM     14  C   LIG    1        3.959   6.145   2.187  0.00  0.00    +0.110 A 
ATOM     15  C   LIG    1        3.929   7.483   1.705  0.00  0.00    -0.160 A 
ATOM     16  C   LIG    1        4.703   8.715   1.747  0.00  0.00    +0.080 A 
ATOM     17  C   LIG    1        4.170   9.721   1.083  0.00  0.00    -0.050 A 
ATOM     18  S   LIG    1        2.655   9.257   0.333  0.00  0.00    +0.140 S 
ATOM     19  C   LIG    1        2.770   7.618   0.963  0.00  0.00    -0.000 A 
ENDBRANCH   7  13
ENDBRANCH   1   8
BRANCH   5  20
ATOM     20  C   LIG    1       -2.243   0.456   2.832  0.00  0.00    -0.290 C 
BRANCH  20  21
ATOM     21  S   LIG    1       -3.109   0.006   1.302  0.00  0.00    +2.610 S 
ATOM     22  O   LIG    1       -2.508  -1.134   0.705  0.00  0.00    -0.950 OA
ATOM     23  O   LIG    1       -3.402   1.166   0.536  0.00  0.00    -0.950 OA
BRANCH  21  24
ATOM     24  N   LIG    1       -4.591  -0.532   1.810  0.00  0.00    -1.110 NA
ATOM     25  H   LIG    1       -4.872  -1.439   1.610  0.00  0.00    +0.420 HD
BRANCH  24  26
ATOM     26  C   LIG    1       -5.477   0.361   2.561  0.00  0.00    +0.170 C 
ATOM     27  C   LIG    1       -5.077   0.353   4.037  0.00  0.00    +0.020 C 
ATOM     28  C   LIG    1       -6.923  -0.120   2.421  0.00  0.00    +0.050 C 
ATOM     29  C   LIG    1       -5.356   1.782   2.007  0.00  0.00    +0.030 C 
ENDBRANCH  24  26
ENDBRANCH  21  24
ENDBRANCH  20  21
ENDBRANCH   5  20
TORSDOF 6
