REMARK  Name = ZINCqH0000008pbg.0
REMARK                            x       y       z     vdW  Elec       q    Type
REMARK                         _______ _______ _______ _____ _____    ______ ____
ROOT
ATOM      1  N   LIG    1       -3.472   2.425   0.199  0.00  0.00    -0.730 N 
ATOM      2  H   LIG    1       -3.143   1.622   0.632  0.00  0.00    +0.400 HD
ATOM      3  C   LIG    1       -4.793   2.692   0.189  0.00  0.00    +0.530 C 
ATOM      4  O   LIG    1       -5.205   3.696  -0.353  0.00  0.00    -0.530 OA
ENDROOT
BRANCH   3   5
ATOM      5  C   LIG    1       -5.758   1.743   0.852  0.00  0.00    -0.010 C 
ATOM      6  C   LIG    1       -7.185   2.276   0.699  0.00  0.00    +0.060 C 
ATOM      7  C   LIG    1       -8.169   1.297   1.343  0.00  0.00    +0.030 C 
ATOM      8  C   LIG    1       -7.857   1.174   2.837  0.00  0.00    +0.260 C 
ATOM      9  N   LIG    1       -6.444   0.803   2.997  0.00  0.00    -0.610 N 
ATOM     10  C   LIG    1       -6.096  -0.273   3.730  0.00  0.00    +0.600 C 
ATOM     11  O   LIG    1       -4.935  -0.639   3.760  0.00  0.00    -0.530 OA
ATOM     12  C   LIG    1       -5.419   1.626   2.341  0.00  0.00    +0.300 C 
BRANCH  10  13
ATOM     13  C   LIG    1       -7.114  -1.002   4.491  0.00  0.00    -0.280 A 
ATOM     14  C   LIG    1       -7.087  -2.339   4.774  0.00  0.00    +0.100 A 
ATOM     15  C   LIG    1       -8.171  -2.762   5.506  0.00  0.00    +0.000 A 
ATOM     16  C   LIG    1       -9.056  -1.807   5.813  0.00  0.00    -0.070 A 
ATOM     17  S   LIG    1       -8.564  -0.296   5.193  0.00  0.00    +0.220 S 
ENDBRANCH  10  13
ENDBRANCH   3   5
BRANCH   1  19
ATOM     18  C   LIG    1       -2.440   3.020  -1.937  0.00  0.00    +0.040 C 
ATOM     19  C   LIG    1       -2.534   3.347  -0.445  0.00  0.00    +0.300 C 
BRANCH  19  20
ATOM     20  C   LIG    1       -1.173   3.203   0.187  0.00  0.00    -0.140 A 
ATOM     21  C   LIG    1       -0.819   2.017   0.801  0.00  0.00    +0.080 A 
ATOM     22  C   LIG    1        0.426   1.885   1.387  0.00  0.00    +0.000 A 
ATOM     23  C   LIG    1        1.324   2.938   1.348  0.00  0.00    +0.130 A 
ATOM     24  C   LIG    1        0.973   4.125   0.729  0.00  0.00    -0.040 A 
ATOM     25  F   LIG    1        2.543   2.807   1.916  0.00  0.00    -0.130 F 
ATOM     26  C   LIG    1       -0.276   4.257   0.148  0.00  0.00    +0.140 A 
ATOM     27  F   LIG    1       -0.620   5.415  -0.458  0.00  0.00    -0.120 F 
ENDBRANCH  19  20
ENDBRANCH   1  19
TORSDOF 4
