REMARK  Name = ZINCqH0000008N25.0
REMARK                            x       y       z     vdW  Elec       q    Type
REMARK                         _______ _______ _______ _____ _____    ______ ____
ROOT
ATOM      1  N   LIG    1        3.599   3.431   0.089  0.00  0.00    -0.590 N 
ATOM      2  C   LIG    1        2.475   4.108  -0.222  0.00  0.00    +0.570 C 
ATOM      3  O   LIG    1        2.492   5.322  -0.272  0.00  0.00    -0.490 OA
ATOM      4  C   LIG    1        3.597   1.966   0.082  0.00  0.00    +0.310 C 
ENDROOT
BRANCH   2   5
ATOM      5  C   LIG    1        1.219   3.370  -0.502  0.00  0.00    +0.170 A 
ATOM      6  N   LIG    1        1.215   2.041  -0.566  0.00  0.00    -0.480 NA
ATOM      7  C   LIG    1        0.097   1.381  -0.815  0.00  0.00    +0.480 A 
ATOM      8  N   LIG    1       -1.054   2.008  -1.015  0.00  0.00    -0.520 NA
ATOM      9  C   LIG    1       -1.129   3.326  -0.961  0.00  0.00    +0.380 A 
ATOM     10  C   LIG    1        0.021   4.060  -0.702  0.00  0.00    -0.130 A 
ATOM     11 CL   LIG    1       -0.028   5.794  -0.629  0.00  0.00    +0.000 Cl
BRANCH   7  12
ATOM     12  N   LIG    1        0.130  -0.002  -0.875  0.00  0.00    -0.440 N 
ATOM     13  C   LIG    1        0.534  -0.582   0.431  0.00  0.00    +0.210 C 
ATOM     14  C   LIG    1        0.017  -2.041   0.346  0.00  0.00    +0.040 C 
ATOM     15  C   LIG    1       -1.325  -1.889  -0.406  0.00  0.00    +0.020 C 
ATOM     16  C   LIG    1       -1.213  -0.553  -1.163  0.00  0.00    +0.220 C 
ENDBRANCH   7  12
ENDBRANCH   2   5
BRANCH   1  17
ATOM     17  C   LIG    1        4.822   4.160   0.433  0.00  0.00    +0.410 C 
BRANCH  17  21
ATOM     18  C   LIG    1        4.569   5.357   3.874  0.00  0.00    +0.030 A 
ATOM     19  C   LIG    1        5.216   4.200   4.097  0.00  0.00    -0.060 A 
ATOM     20  C   LIG    1        5.404   3.585   2.838  0.00  0.00    -0.040 A 
ATOM     21  C   LIG    1        4.859   4.404   1.920  0.00  0.00    -0.040 A 
ATOM     22  O   LIG    1        4.360   5.479   2.553  0.00  0.00    -0.160 OA
BRANCH  18  26
ATOM     23  C   LIG    1        5.027   8.504   6.129  0.00  0.00    +0.070 C 
ATOM     24  C   LIG    1        4.720   7.769   4.823  0.00  0.00    -0.030 C 
ATOM     25  C   LIG    1        3.250   7.507   4.489  0.00  0.00    +0.040 C 
ATOM     26  C   LIG    1        4.152   6.352   4.926  0.00  0.00    +0.040 C 
ENDBRANCH  18  26
ENDBRANCH  17  21
ENDBRANCH   1  17
TORSDOF 5
