REMARK  Name = ZINCqH000005031S.0
REMARK                            x       y       z     vdW  Elec       q    Type
REMARK                         _______ _______ _______ _____ _____    ______ ____
ROOT
ATOM      1  C   LIG    1       -0.027   1.077   0.039  0.00  0.00    +0.140 C 
ATOM      2  C   LIG    1       -0.725   1.573   1.279  0.00  0.00    +0.050 A 
ATOM      3  C   LIG    1       -0.030   1.815   2.421  0.00  0.00    -0.210 A 
ATOM      4  C   LIG    1       -0.706   2.278   3.569  0.00  0.00    +0.520 A 
ATOM      5  O   LIG    1       -2.031   2.491   3.569  0.00  0.00    -0.270 OA
ATOM      6  C   LIG    1       -2.781   2.270   2.467  0.00  0.00    +0.170 A 
ATOM      7  C   LIG    1       -4.149   2.494   2.484  0.00  0.00    -0.020 A 
ATOM      8  C   LIG    1       -4.899   2.260   1.343  0.00  0.00    +0.170 A 
ATOM      9  C   LIG    1       -4.289   1.802   0.177  0.00  0.00    -0.030 A 
ATOM     10  C   LIG    1       -2.943   1.576   0.143  0.00  0.00    +0.110 A 
ATOM     11  O   LIG    1       -0.071   2.491   4.586  0.00  0.00    -0.460 OA
ATOM     12  C   LIG    1       -2.170   1.812   1.285  0.00  0.00    -0.160 A 
ENDROOT
BRANCH   8  13
ATOM     13  O   LIG    1       -6.238   2.481   1.360  0.00  0.00    -0.490 OA
ATOM     14  H   LIG    1       -6.492   3.378   1.107  0.00  0.00    +0.400 HD
ENDBRANCH   8  13
BRANCH   3  15
ATOM     15  C   LIG    1        1.459   1.589   2.462  0.00  0.00    +0.160 C 
BRANCH  15  16
ATOM     16  C   LIG    1        2.172   2.886   2.180  0.00  0.00    +0.520 C 
ATOM     17  N   LIG    1        3.519   2.926   2.164  0.00  0.00    -0.670 N 
ATOM     18  H   LIG    1        4.030   2.135   2.397  0.00  0.00    +0.410 HD
ATOM     19  O   LIG    1        1.533   3.896   1.968  0.00  0.00    -0.510 OA
BRANCH  17  20
ATOM     20  C   LIG    1        4.179   4.106   1.812  0.00  0.00    +0.190 A 
ATOM     21  C   LIG    1        5.385   4.056   1.103  0.00  0.00    -0.160 A 
ATOM     22  C   LIG    1        6.220   2.970   0.578  0.00  0.00    -0.050 A 
ATOM     23  C   LIG    1        7.266   3.559  -0.019  0.00  0.00    +0.220 A 
ATOM     24  O   LIG    1        7.164   4.896   0.082  0.00  0.00    -0.190 OA
ATOM     25  C   LIG    1        6.045   5.243   0.751  0.00  0.00    +0.070 A 
ATOM     26  C   LIG    1        5.492   6.465   1.114  0.00  0.00    +0.010 A 
ATOM     27  C   LIG    1        4.304   6.505   1.814  0.00  0.00    +0.070 A 
ATOM     28  C   LIG    1        3.644   5.336   2.158  0.00  0.00    +0.010 A 
ENDBRANCH  17  20
ENDBRANCH  15  16
ENDBRANCH   3  15
TORSDOF 4
