REMARK  Name = ZINCrg000000tDmA.0
REMARK                            x       y       z     vdW  Elec       q    Type
REMARK                         _______ _______ _______ _____ _____    ______ ____
ROOT
ATOM      1  O   LIG    1        1.475   2.333  -0.179  0.00  0.00    -0.530 OA
ATOM      2  C   LIG    1        1.210   1.153  -0.061  0.00  0.00    +0.580 C 
ATOM      3  N   LIG    1       -0.076   0.754  -0.006  0.00  0.00    -0.680 N 
ATOM      4  H   LIG    1       -0.289  -0.192   0.015  0.00  0.00    +0.420 HD
ENDROOT
BRANCH   3   5
ATOM      5  C   LIG    1       -1.152   1.748   0.015  0.00  0.00    +0.150 C 
ATOM      6  C   LIG    1       -2.508   1.040   0.125  0.00  0.00    +0.260 C 
ATOM      7  O   LIG    1       -2.480   0.191   1.274  0.00  0.00    -0.310 OA
ATOM      8  C   LIG    1       -2.046   0.723   2.446  0.00  0.00    +0.130 A 
ATOM      9  C   LIG    1       -2.341   0.052   3.629  0.00  0.00    -0.020 A 
ATOM     10  C   LIG    1       -1.911   0.556   4.839  0.00  0.00    +0.040 A 
ATOM     11  C   LIG    1       -1.184   1.732   4.878  0.00  0.00    -0.030 A 
ATOM     12  C   LIG    1       -0.890   2.401   3.706  0.00  0.00    +0.040 A 
ATOM     13  C   LIG    1       -1.321   1.901   2.489  0.00  0.00    -0.150 A 
ATOM     14  C   LIG    1       -0.986   2.662   1.231  0.00  0.00    +0.110 C 
BRANCH   5  15
ATOM     15  C   LIG    1       -1.108   2.582  -1.267  0.00  0.00    +0.200 C 
BRANCH  15  16
ATOM     16  O   LIG    1       -1.211   1.719  -2.401  0.00  0.00    -0.570 OA
ATOM     17  H   LIG    1       -1.190   2.181  -3.250  0.00  0.00    +0.380 HD
ENDBRANCH  15  16
ENDBRANCH   5  15
ENDBRANCH   3   5
BRANCH   2  18
ATOM     18  C   LIG    1        2.301   0.154   0.023  0.00  0.00    +0.100 A 
ATOM     19  C   LIG    1        3.625   0.573  -0.039  0.00  0.00    +0.020 A 
ATOM     20  C   LIG    1        4.639  -0.381   0.047  0.00  0.00    +0.150 A 
ATOM     21  C   LIG    1        4.279  -1.720   0.182  0.00  0.00    -0.060 A 
ATOM     22  C   LIG    1        2.939  -2.058   0.231  0.00  0.00    +0.300 A 
ATOM     23  N   LIG    1        2.004  -1.135   0.152  0.00  0.00    -0.480 NA
BRANCH  20  24
ATOM     24  N   LIG    1        5.978  -0.004  -0.006  0.00  0.00    -0.480 N 
ATOM     25  C   LIG    1        6.264   0.756  -1.232  0.00  0.00    +0.180 C 
ATOM     26  C   LIG    1        7.729   1.200  -1.221  0.00  0.00    +0.240 C 
ATOM     27  O   LIG    1        8.569   0.050  -1.088  0.00  0.00    -0.380 OA
ATOM     28  C   LIG    1        8.319  -0.713   0.095  0.00  0.00    +0.230 C 
ATOM     29  C   LIG    1        6.859  -1.176   0.097  0.00  0.00    +0.170 C 
ENDBRANCH  20  24
ENDBRANCH   2  18
TORSDOF 5
