REMARK  Name = ZINCpe00000bZ6ks.0
REMARK                            x       y       z     vdW  Elec       q    Type
REMARK                         _______ _______ _______ _____ _____    ______ ____
ROOT
ATOM      1  C   LIG    1       -1.169  -0.887   0.009  0.00  0.00    +0.610 C 
ATOM      2  N   LIG    1       -2.406  -0.360  -0.078  0.00  0.00    -0.630 N 
ATOM      3  C   LIG    1       -2.777   1.072  -0.179  0.00  0.00    +0.290 C 
ATOM      4  C   LIG    1       -3.961   1.095  -1.181  0.00  0.00    +0.020 C 
ATOM      5  C   LIG    1       -4.558  -0.314  -1.102  0.00  0.00    -0.100 C 
ATOM      6  C   LIG    1       -6.069  -0.385  -0.886  0.00  0.00    +0.300 C 
ATOM      7  N   LIG    1       -6.165  -0.488  -2.357  0.00  0.00    -0.640 N 
ATOM      8  C   LIG    1       -7.125  -0.211  -3.261  0.00  0.00    +0.570 C 
ATOM      9  O   LIG    1       -6.920  -0.400  -4.441  0.00  0.00    -0.520 OA
ATOM     10  C   LIG    1       -4.787  -1.015  -2.441  0.00  0.00    +0.310 C 
ATOM     11  C   LIG    1       -3.703  -1.081  -0.086  0.00  0.00    +0.270 C 
ATOM     12  O   LIG    1       -0.195  -0.158   0.003  0.00  0.00    -0.520 OA
ENDROOT
BRANCH   1  18
ATOM     13  C   LIG    1        0.888  -5.521   0.121  0.00  0.00    +0.100 C 
ATOM     14  C   LIG    1       -0.103  -4.387   0.162  0.00  0.00    -0.180 A 
ATOM     15  C   LIG    1       -1.439  -4.501   0.358  0.00  0.00    +0.050 A 
ATOM     16  N   LIG    1       -1.993  -3.264   0.329  0.00  0.00    -0.540 N 
ATOM     17  H   LIG    1       -2.935  -3.064   0.447  0.00  0.00    +0.410 HD
ATOM     18  C   LIG    1       -0.997  -2.340   0.110  0.00  0.00    -0.060 A 
ATOM     19  C   LIG    1       -2.186  -5.792   0.574  0.00  0.00    +0.150 C 
ATOM     20  C   LIG    1        0.193  -3.029   0.004  0.00  0.00    +0.060 A 
ENDBRANCH   1  18
BRANCH   8  21
ATOM     21  C   LIG    1       -8.455   0.333  -2.806  0.00  0.00    -0.070 C 
ATOM     22  C   LIG    1       -9.504   0.626  -3.881  0.00  0.00    +0.080 C 
ATOM     23  C   LIG    1       -9.677  -0.576  -2.950  0.00  0.00    +0.200 C 
ATOM     24  F   LIG    1       -9.475  -1.849  -3.495  0.00  0.00    -0.170 F 
ENDBRANCH   8  21
BRANCH   4  25
ATOM     25  C   LIG    1       -4.995   2.139  -0.756  0.00  0.00    +0.190 C 
BRANCH  25  26
ATOM     26  O   LIG    1       -4.458   3.449  -0.947  0.00  0.00    -0.570 OA
ATOM     27  H   LIG    1       -5.061   4.162  -0.698  0.00  0.00    +0.380 HD
ENDBRANCH  25  26
ENDBRANCH   4  25
TORSDOF 4
