REMARK  Name = ZINCrH00000tj1cu.1
REMARK                            x       y       z     vdW  Elec       q    Type
REMARK                         _______ _______ _______ _____ _____    ______ ____
ROOT
ATOM      1  C   LIG    1       -0.018   1.464   0.010  0.00  0.00    +0.420 C 
ATOM      2  O   LIG    1        1.024   2.085   0.004  0.00  0.00    -0.440 OA
ENDROOT
BRANCH   1  10
ATOM      3  C   LIG    1       -2.124  -4.707  -0.003  0.00  0.00    +0.120 C 
ATOM      4  C   LIG    1       -0.670  -5.104  -0.018  0.00  0.00    +0.520 C 
ATOM      5  N   LIG    1        0.288  -4.156  -0.023  0.00  0.00    -0.550 N 
ATOM      6  C   LIG    1        1.728  -4.420  -0.038  0.00  0.00    +0.280 C 
ATOM      7  C   LIG    1        2.393  -3.034  -0.037  0.00  0.00    +0.110 C 
ATOM      8  C   LIG    1        1.236  -2.059  -0.021  0.00  0.00    -0.150 A 
ATOM      9  C   LIG    1        1.221  -0.693  -0.019  0.00  0.00    +0.130 A 
ATOM     10  C   LIG    1        0.002  -0.004   0.002  0.00  0.00    -0.190 A 
ATOM     11  C   LIG    1       -1.198  -0.726   0.010  0.00  0.00    +0.110 A 
ATOM     12  C   LIG    1       -1.171  -2.099   0.002  0.00  0.00    -0.030 A 
ATOM     13  C   LIG    1        0.050  -2.784  -0.013  0.00  0.00    +0.190 A 
ATOM     14  O   LIG    1       -0.362  -6.277  -0.027  0.00  0.00    -0.510 OA
ENDBRANCH   1  10
BRANCH   1  15
ATOM     15  C   LIG    1       -1.333   2.200   0.020  0.00  0.00    +0.000 C 
ATOM     16  C   LIG    1       -1.846   2.347  -1.413  0.00  0.00    +0.090 C 
BRANCH  15  17
ATOM     17  S   LIG    1       -1.101   3.840   0.749  0.00  0.00    +0.060 S 
BRANCH  17  18
ATOM     18  C   LIG    1       -2.771   4.402   0.776  0.00  0.00    +0.250 A 
ATOM     19  N   LIG    1       -3.821   3.732   0.350  0.00  0.00    -0.540 NA
ATOM     20  C   LIG    1       -4.922   4.463   0.527  0.00  0.00    +0.250 A 
ATOM     21  N   LIG    1       -4.594   5.611   1.058  0.00  0.00    -0.300 NA
ATOM     22  N   LIG    1       -3.200   5.599   1.231  0.00  0.00    -0.460 N 
ATOM     23  H   LIG    1       -2.655   6.310   1.603  0.00  0.00    +0.450 HD
BRANCH  20  24
ATOM     24  C   LIG    1       -6.322   4.036   0.167  0.00  0.00    +0.100 C 
ATOM     25  C   LIG    1       -6.941   5.039  -0.829  0.00  0.00    +0.020 C 
ATOM     26  C   LIG    1       -8.428   5.126  -0.404  0.00  0.00    +0.020 C 
ATOM     27  C   LIG    1       -8.347   5.062   1.142  0.00  0.00    +0.020 C 
ATOM     28  C   LIG    1       -7.216   4.050   1.419  0.00  0.00    +0.030 C 
ENDBRANCH  20  24
ENDBRANCH  17  18
ENDBRANCH  15  17
ENDBRANCH   1  15
TORSDOF 5
