REMARK  Name = ZINCrH00000tj1cu.0
REMARK                            x       y       z     vdW  Elec       q    Type
REMARK                         _______ _______ _______ _____ _____    ______ ____
ROOT
ATOM      1  C   LIG    1        4.059   4.603  -0.015  0.00  0.00    +0.420 C 
ATOM      2  O   LIG    1        3.374   5.604  -0.003  0.00  0.00    -0.440 OA
ENDROOT
BRANCH   1  10
ATOM      3  C   LIG    1        3.377  -1.883  -0.040  0.00  0.00    +0.120 C 
ATOM      4  C   LIG    1        1.891  -1.633  -0.024  0.00  0.00    +0.520 C 
ATOM      5  N   LIG    1        1.421  -0.370  -0.013  0.00  0.00    -0.550 N 
ATOM      6  C   LIG    1        0.002  -0.004   0.002  0.00  0.00    +0.280 C 
ATOM      7  C   LIG    1       -0.019   1.533   0.011  0.00  0.00    +0.110 C 
ATOM      8  C   LIG    1        1.440   1.932  -0.001  0.00  0.00    -0.150 A 
ATOM      9  C   LIG    1        2.029   3.165  -0.001  0.00  0.00    +0.130 A 
ATOM     10  C   LIG    1        3.424   3.279  -0.014  0.00  0.00    -0.190 A 
ATOM     11  C   LIG    1        4.210   2.119  -0.028  0.00  0.00    +0.110 A 
ATOM     12  C   LIG    1        3.608   0.884  -0.027  0.00  0.00    -0.030 A 
ATOM     13  C   LIG    1        2.212   0.776  -0.015  0.00  0.00    +0.190 A 
ATOM     14  O   LIG    1        1.119  -2.568  -0.021  0.00  0.00    -0.510 OA
ENDBRANCH   1  10
BRANCH   1  15
ATOM     15  C   LIG    1        5.561   4.718  -0.029  0.00  0.00    +0.000 C 
ATOM     16  C   LIG    1        6.094   4.625   1.402  0.00  0.00    +0.090 C 
BRANCH  15  17
ATOM     17  S   LIG    1        6.038   6.309  -0.748  0.00  0.00    +0.050 S 
BRANCH  17  18
ATOM     18  C   LIG    1        7.789   6.118  -0.781  0.00  0.00    +0.150 A 
ATOM     19  N   LIG    1        8.468   5.071  -0.375  0.00  0.00    -0.290 NA
ATOM     20  N   LIG    1        9.726   5.272  -0.545  0.00  0.00    -0.280 NA
ATOM     21  C   LIG    1        9.923   6.450  -1.066  0.00  0.00    +0.210 A 
ATOM     22  N   LIG    1        8.696   7.029  -1.241  0.00  0.00    -0.570 N 
ATOM     23  H   LIG    1        8.510   7.906  -1.612  0.00  0.00    +0.430 HD
BRANCH  21  24
ATOM     24  C   LIG    1       11.256   7.059  -1.417  0.00  0.00    +0.100 C 
ATOM     25  C   LIG    1       11.209   8.588  -1.214  0.00  0.00    +0.020 C 
ATOM     26  C   LIG    1       12.064   9.152  -2.376  0.00  0.00    +0.030 C 
ATOM     27  C   LIG    1       11.699   8.216  -3.555  0.00  0.00    +0.000 C 
ATOM     28  C   LIG    1       11.568   6.823  -2.906  0.00  0.00    +0.030 C 
ENDBRANCH  21  24
ENDBRANCH  17  18
ENDBRANCH  15  17
ENDBRANCH   1  15
TORSDOF 5
