REMARK  Name = ZINCrH00000tj1cu.2
REMARK                            x       y       z     vdW  Elec       q    Type
REMARK                         _______ _______ _______ _____ _____    ______ ____
ROOT
ATOM      1  C   LIG    1       -4.130   1.810  -0.091  0.00  0.00    +0.430 C 
ATOM      2  O   LIG    1       -4.233   2.960   0.281  0.00  0.00    -0.430 OA
ENDROOT
BRANCH   1  10
ATOM      3  C   LIG    1       -7.782  -2.906  -2.726  0.00  0.00    +0.120 C 
ATOM      4  C   LIG    1       -8.918  -1.916  -2.692  0.00  0.00    +0.520 C 
ATOM      5  N   LIG    1       -8.716  -0.675  -2.206  0.00  0.00    -0.550 N 
ATOM      6  C   LIG    1       -9.740   0.370  -2.123  0.00  0.00    +0.280 C 
ATOM      7  C   LIG    1       -9.028   1.585  -1.506  0.00  0.00    +0.110 C 
ATOM      8  C   LIG    1       -7.607   1.117  -1.280  0.00  0.00    -0.150 A 
ATOM      9  C   LIG    1       -6.526   1.768  -0.758  0.00  0.00    +0.130 A 
ATOM     10  C   LIG    1       -5.294   1.112  -0.650  0.00  0.00    -0.190 A 
ATOM     11  C   LIG    1       -5.180  -0.214  -1.086  0.00  0.00    +0.110 A 
ATOM     12  C   LIG    1       -6.275  -0.862  -1.603  0.00  0.00    -0.030 A 
ATOM     13  C   LIG    1       -7.504  -0.201  -1.710  0.00  0.00    +0.190 A 
ATOM     14  O   LIG    1      -10.014  -2.236  -3.102  0.00  0.00    -0.510 OA
ENDBRANCH   1  10
BRANCH   1  15
ATOM     15  C   LIG    1       -2.807   1.097   0.023  0.00  0.00    -0.020 C 
ATOM     16  C   LIG    1       -2.769   0.296   1.326  0.00  0.00    +0.080 C 
BRANCH  15  17
ATOM     17  S   LIG    1       -1.462   2.315   0.022  0.00  0.00    +0.080 S 
BRANCH  17  18
ATOM     18  C   LIG    1       -0.016   1.308   0.009  0.00  0.00    +0.200 A 
ATOM     19  N   LIG    1        0.002  -0.004   0.002  0.00  0.00    -0.320 NA
ATOM     20  N   LIG    1        1.352  -0.391  -0.013  0.00  0.00    -0.470 N 
ATOM     21  H   LIG    1        1.696  -1.297  -0.021  0.00  0.00    +0.440 HD
ATOM     22  C   LIG    1        2.073   0.743  -0.014  0.00  0.00    +0.310 A 
ATOM     23  N   LIG    1        1.244   1.756  -0.000  0.00  0.00    -0.510 NA
BRANCH  22  24
ATOM     24  C   LIG    1        3.577   0.833  -0.028  0.00  0.00    +0.090 C 
ATOM     25  C   LIG    1        4.171  -0.356  -0.812  0.00  0.00    +0.020 C 
ATOM     26  C   LIG    1        5.457  -0.721  -0.032  0.00  0.00    +0.030 C 
ATOM     27  C   LIG    1        5.032  -0.516   1.444  0.00  0.00    +0.010 C 
ATOM     28  C   LIG    1        4.125   0.731   1.406  0.00  0.00    +0.030 C 
ENDBRANCH  22  24
ENDBRANCH  17  18
ENDBRANCH  15  17
ENDBRANCH   1  15
TORSDOF 5
