REMARK  Name = ZINCrH00000No53R.0
REMARK                            x       y       z     vdW  Elec       q    Type
REMARK                         _______ _______ _______ _____ _____    ______ ____
ROOT
ATOM      1  C   LIG    1        1.385   4.753   0.086  0.00  0.00    +0.200 A 
ATOM      2  C   LIG    1        0.702   5.933   0.091  0.00  0.00    -0.080 A 
ATOM      3  C   LIG    1       -0.704   5.926   0.082  0.00  0.00    +0.060 A 
ATOM      4  C   LIG    1       -1.380   4.760   0.068  0.00  0.00    +0.150 A 
ATOM      5  N   LIG    1       -0.712   3.563   0.062  0.00  0.00    -0.360 N 
ATOM      6  C   LIG    1       -1.146   2.268   0.042  0.00  0.00    +0.170 A 
ATOM      7  C   LIG    1       -0.019   1.468   0.048  0.00  0.00    +0.110 A 
ATOM      8  N   LIG    1        1.060   2.273   0.062  0.00  0.00    -0.420 NA
ATOM      9  C   LIG    1        0.663   3.535   0.070  0.00  0.00    +0.210 A 
ENDROOT
BRANCH   7  10
ATOM     10  C   LIG    1       -0.001  -0.008   0.035  0.00  0.00    +0.060 A 
ATOM     11  C   LIG    1        0.912  -0.790  -0.602  0.00  0.00    -0.020 A 
ATOM     12  C   LIG    1        0.550  -2.128  -0.346  0.00  0.00    -0.060 A 
ATOM     13  C   LIG    1       -0.558  -2.098   0.418  0.00  0.00    +0.180 A 
ATOM     14  O   LIG    1       -0.889  -0.815   0.646  0.00  0.00    -0.160 OA
ENDBRANCH   7  10
BRANCH   6  15
ATOM     15  N   LIG    1       -2.472   1.835   0.023  0.00  0.00    -0.570 N 
ATOM     16  H   LIG    1       -2.667   1.303  -0.812  0.00  0.00    +0.370 HD
BRANCH  15  17
ATOM     17  C   LIG    1       -3.397   2.969   0.152  0.00  0.00    +0.190 C 
BRANCH  17  18
ATOM     18  C   LIG    1       -4.830   2.446   0.277  0.00  0.00    -0.020 C 
ATOM     19  C   LIG    1       -5.810   3.611   0.540  0.00  0.00    +0.010 C 
ATOM     20  C   LIG    1       -6.764   3.580  -0.674  0.00  0.00    +0.200 C 
ATOM     21  O   LIG    1       -6.700   2.221  -1.160  0.00  0.00    -0.370 OA
ATOM     22  C   LIG    1       -5.308   1.849  -1.065  0.00  0.00    +0.200 C 
ENDBRANCH  17  18
ENDBRANCH  15  17
ENDBRANCH   6  15
BRANCH   1  23
ATOM     23  O   LIG    1        2.744   4.745   0.095  0.00  0.00    -0.290 OA
BRANCH  23  24
ATOM     24  C   LIG    1        3.399   6.015   0.110  0.00  0.00    +0.200 C 
BRANCH  24  25
ATOM     25  C   LIG    1        4.915   5.807   0.118  0.00  0.00    +0.060 C 
BRANCH  25  26
ATOM     26  C   LIG    1        5.616   7.166   0.134  0.00  0.00    +0.200 C 
BRANCH  26  28
ATOM     27  N   LIG    1        8.200   6.811   0.149  0.00  0.00    -0.430 NA
ATOM     28  C   LIG    1        7.075   6.966   0.142  0.00  0.00    +0.200 C 
ENDBRANCH  26  28
ENDBRANCH  25  26
ENDBRANCH  24  25
ENDBRANCH  23  24
ENDBRANCH   1  23
TORSDOF 9
