REMARK  Name = ZINCrg00000bIfs2.0
REMARK                            x       y       z     vdW  Elec       q    Type
REMARK                         _______ _______ _______ _____ _____    ______ ____
ROOT
ATOM      1  C   LIG    1       -4.136   1.525  -0.503  0.00  0.00    +0.270 C 
ATOM      2  C   LIG    1       -3.912   1.188   0.941  0.00  0.00    -0.020 C 
ATOM      3  C   LIG    1       -4.667   1.587   1.914  0.00  0.00    -0.030 C 
ATOM      4  C   LIG    1       -5.893   2.435   1.724  0.00  0.00    +0.300 C 
ATOM      5  N   LIG    1       -5.926   2.933   0.342  0.00  0.00    -0.610 N 
ATOM      6  C   LIG    1       -6.257   4.210   0.064  0.00  0.00    +0.500 C 
ATOM      7  O   LIG    1       -6.178   4.623  -1.074  0.00  0.00    -0.520 OA
ATOM      8  C   LIG    1       -5.581   1.980  -0.727  0.00  0.00    +0.310 C 
ENDROOT
BRANCH   1  10
ATOM      9  C   LIG    1       -1.962   2.309  -1.274  0.00  0.00    +0.570 C 
ATOM     10  N   LIG    1       -3.223   2.600  -0.898  0.00  0.00    -0.720 N 
ATOM     11  H   LIG    1       -3.526   3.522  -0.888  0.00  0.00    +0.400 HD
ATOM     12  O   LIG    1       -1.582   1.155  -1.286  0.00  0.00    -0.530 OA
BRANCH   9  17
ATOM     13  C   LIG    1        1.627   6.530  -2.836  0.00  0.00    +0.110 C 
ATOM     14  C   LIG    1        0.688   5.426  -2.424  0.00  0.00    -0.090 A 
ATOM     15  C   LIG    1        1.121   4.112  -2.438  0.00  0.00    +0.040 A 
ATOM     16  C   LIG    1        0.266   3.096  -2.062  0.00  0.00    +0.090 A 
ATOM     17  C   LIG    1       -1.040   3.394  -1.672  0.00  0.00    -0.120 A 
ATOM     18  C   LIG    1       -1.471   4.722  -1.654  0.00  0.00    +0.020 A 
ATOM     19  C   LIG    1       -0.606   5.731  -2.032  0.00  0.00    +0.090 A 
ATOM     20  F   LIG    1       -1.022   7.016  -2.021  0.00  0.00    -0.130 F 
ENDBRANCH   9  17
ENDBRANCH   1  10
BRANCH   6  21
ATOM     21  C   LIG    1       -6.727   5.123   1.166  0.00  0.00    +0.290 C 
BRANCH  21  22
ATOM     22  C   LIG    1       -5.606   6.050   1.562  0.00  0.00    +0.040 A 
ATOM     23  C   LIG    1       -5.275   7.209   0.949  0.00  0.00    -0.090 A 
ATOM     24  C   LIG    1       -4.183   7.759   1.629  0.00  0.00    +0.240 A 
ATOM     25  N   LIG    1       -3.866   6.955   2.611  0.00  0.00    -0.280 NA
ATOM     26  N   LIG    1       -4.750   5.868   2.590  0.00  0.00    -0.360 N 
ATOM     27  C   LIG    1       -4.745   4.735   3.518  0.00  0.00    +0.350 C 
ENDBRANCH  21  22
BRANCH  21  28
ATOM     28  O   LIG    1       -7.840   5.892   0.706  0.00  0.00    -0.520 OA
ATOM     29  H   LIG    1       -7.644   6.448  -0.061  0.00  0.00    +0.390 HD
ENDBRANCH  21  28
ENDBRANCH   6  21
TORSDOF 5
