REMARK  Name = ZINCpe00000zauyg.0
REMARK                            x       y       z     vdW  Elec       q    Type
REMARK                         _______ _______ _______ _____ _____    ______ ____
ROOT
ATOM      1  C   LIG    1        2.049  -4.100   1.127  0.00  0.00    +0.250 C 
ATOM      2  C   LIG    1        0.842  -4.970   1.518  0.00  0.00    +0.000 C 
ATOM      3  C   LIG    1        1.832  -5.847   2.307  0.00  0.00    +0.100 C 
ATOM      4  C   LIG    1        2.731  -4.603   2.410  0.00  0.00    +0.070 C 
ENDROOT
BRANCH   1   6
ATOM      5  C   LIG    1        1.624  -1.995  -0.025  0.00  0.00    +0.590 C 
ATOM      6  N   LIG    1        1.765  -2.663   1.137  0.00  0.00    -0.710 N 
ATOM      7  H   LIG    1        1.679  -2.192   1.981  0.00  0.00    +0.400 HD
ATOM      8  O   LIG    1        1.732  -2.586  -1.083  0.00  0.00    -0.520 OA
BRANCH   5  15
ATOM      9  C   LIG    1       -1.244  -0.852   0.010  0.00  0.00    +0.130 C 
ATOM     10  C   LIG    1        0.002  -0.004   0.002  0.00  0.00    -0.060 A 
ATOM     11  C   LIG    1       -0.016   1.323   0.009  0.00  0.00    -0.050 A 
ATOM     12  S   LIG    1        1.618   1.963  -0.003  0.00  0.00    +0.240 S 
ATOM     13  C   LIG    1        2.308   0.405  -0.018  0.00  0.00    -0.150 A 
ATOM     14 CL   LIG    1        4.013   0.082  -0.037  0.00  0.00    +0.000 Cl
ATOM     15  C   LIG    1        1.339  -0.553  -0.014  0.00  0.00    -0.140 A 
ENDBRANCH   5  15
ENDBRANCH   1   6
BRANCH   3  16
ATOM     16  O   LIG    1        2.402  -6.902   1.531  0.00  0.00    -0.530 OA
ATOM     17  H   LIG    1        1.841  -7.687   1.462  0.00  0.00    +0.380 HD
ENDBRANCH   3  16
BRANCH   3  18
ATOM     18  C   LIG    1        1.289  -6.324   3.655  0.00  0.00    +0.270 C 
BRANCH  18  19
ATOM     19  N   LIG    1        0.449  -7.507   3.452  0.00  0.00    -0.730 N 
ATOM     20  H   LIG    1        0.316  -7.860   2.558  0.00  0.00    +0.400 HD
ATOM     21  C   LIG    1       -0.140  -8.105   4.507  0.00  0.00    +0.530 C 
ATOM     22  O   LIG    1        0.026  -7.663   5.624  0.00  0.00    -0.500 OA
BRANCH  21  23
ATOM     23  C   LIG    1       -1.004  -9.321   4.298  0.00  0.00    +0.140 C 
ATOM     24  C   LIG    1       -0.145 -10.476   3.775  0.00  0.00    +0.220 C 
ATOM     25  O   LIG    1       -0.949 -11.656   3.686  0.00  0.00    -0.370 OA
ATOM     26  C   LIG    1       -1.544 -12.039   4.929  0.00  0.00    +0.200 C 
ATOM     27  C   LIG    1       -2.403 -10.884   5.452  0.00  0.00    +0.200 C 
ATOM     28  O   LIG    1       -1.599  -9.704   5.542  0.00  0.00    -0.350 OA
ENDBRANCH  21  23
ENDBRANCH  18  19
ENDBRANCH   3  18
TORSDOF 6
