REMARK  Name = ZINCpe00000c69Au.0
REMARK                            x       y       z     vdW  Elec       q    Type
REMARK                         _______ _______ _______ _____ _____    ______ ____
ROOT
ATOM      1  C   LIG    1       -2.016   4.073   0.047  0.00  0.00    +0.560 C 
ATOM      2  N   LIG    1       -2.082   5.415   0.150  0.00  0.00    -0.600 N 
ATOM      3  C   LIG    1       -0.872   6.242   0.026  0.00  0.00    +0.280 C 
ATOM      4  C   LIG    1       -1.145   7.344  -1.010  0.00  0.00    +0.170 C 
ATOM      5  N   LIG    1       -2.361   8.076  -0.630  0.00  0.00    -0.530 NA
ATOM      6  C   LIG    1       -3.539   7.199  -0.650  0.00  0.00    +0.180 C 
ATOM      7  C   LIG    1       -3.365   6.091   0.395  0.00  0.00    +0.290 C 
ATOM      8  O   LIG    1       -3.035   3.411   0.070  0.00  0.00    -0.520 OA
ENDROOT
BRANCH   1  13
ATOM      9  C   LIG    1        3.036   1.490  -0.544  0.00  0.00    +0.330 C 
ATOM     10  N   LIG    1        1.740   2.155  -0.383  0.00  0.00    -0.500 N 
ATOM     11  C   LIG    1        0.916   2.279  -1.454  0.00  0.00    +0.310 A 
ATOM     12  C   LIG    1       -0.287   2.887  -1.341  0.00  0.00    -0.060 A 
ATOM     13  C   LIG    1       -0.699   3.403  -0.093  0.00  0.00    -0.010 A 
ATOM     14  C   LIG    1        0.141   3.269   0.997  0.00  0.00    -0.060 A 
ATOM     15  C   LIG    1        1.387   2.632   0.825  0.00  0.00    +0.510 A 
ATOM     16  O   LIG    1        2.144   2.509   1.774  0.00  0.00    -0.540 OA
ENDBRANCH   1  13
BRANCH   5  17
ATOM     17  C   LIG    1       -2.562   9.247  -1.494  0.00  0.00    +0.200 C 
BRANCH  17  18
ATOM     18  C   LIG    1       -2.571   8.805  -2.958  0.00  0.00    +0.220 C 
BRANCH  18  19
ATOM     19  C   LIG    1       -2.609  10.019  -3.849  0.00  0.00    -0.120 A 
ATOM     20  C   LIG    1       -3.807  10.670  -4.080  0.00  0.00    +0.010 A 
ATOM     21  C   LIG    1       -3.842  11.787  -4.894  0.00  0.00    +0.010 A 
ATOM     22  C   LIG    1       -2.680  12.248  -5.484  0.00  0.00    +0.000 A 
ATOM     23  C   LIG    1       -1.483  11.594  -5.258  0.00  0.00    +0.000 A 
ATOM     24  C   LIG    1       -1.448  10.480  -4.441  0.00  0.00    +0.010 A 
ENDBRANCH  18  19
BRANCH  18  25
ATOM     25  O   LIG    1       -3.723   7.996  -3.205  0.00  0.00    -0.550 OA
ATOM     26  H   LIG    1       -4.562   8.447  -3.037  0.00  0.00    +0.370 HD
ENDBRANCH  18  25
ENDBRANCH  17  18
ENDBRANCH   5  17
TORSDOF 5
