REMARK  Name = ZINCpe00000SGKzx.0
REMARK                            x       y       z     vdW  Elec       q    Type
REMARK                         _______ _______ _______ _____ _____    ______ ____
ROOT
ATOM      1  C   LIG    1       -0.524   3.382   6.660  0.00  0.00    +0.030 A 
ATOM      2  C   LIG    1       -0.184   3.190   5.351  0.00  0.00    +0.210 A 
ATOM      3  N   LIG    1       -0.688   4.245   4.676  0.00  0.00    -0.280 N 
ATOM      4  N   LIG    1       -1.282   5.021   5.512  0.00  0.00    -0.070 NA
ATOM      5  N   LIG    1       -1.212   4.538   6.702  0.00  0.00    -0.220 NA
ENDROOT
BRANCH   3   6
ATOM      6  C   LIG    1       -0.571   4.471   3.233  0.00  0.00    +0.230 C 
ATOM      7  C   LIG    1        0.778   3.931   2.695  0.00  0.00    +0.240 C 
ATOM      8  O   LIG    1        0.506   3.668   1.301  0.00  0.00    -0.340 OA
ATOM      9  C   LIG    1       -0.812   3.106   1.232  0.00  0.00    +0.110 C 
ATOM     10  C   LIG    1       -0.730   1.580   1.268  0.00  0.00    -0.000 C 
ATOM     11  C   LIG    1       -0.013   1.086   0.008  0.00  0.00    +0.230 C 
ATOM     12  O   LIG    1       -0.705   1.560  -1.149  0.00  0.00    -0.380 OA
ATOM     13  C   LIG    1       -0.755   2.984  -1.258  0.00  0.00    +0.220 C 
ATOM     14  C   LIG    1       -1.505   3.559  -0.053  0.00  0.00    +0.050 C 
ATOM     15  C   LIG    1       -1.598   3.613   2.453  0.00  0.00    +0.150 C 
BRANCH  15  16
ATOM     16  O   LIG    1       -2.707   4.414   2.038  0.00  0.00    -0.360 OA
ATOM     17  C   LIG    1       -3.823   4.367   2.928  0.00  0.00    +0.220 C 
ENDBRANCH  15  16
ENDBRANCH   3   6
BRANCH   1  22
ATOM     18  C   LIG    1       -0.336   2.061  10.063  0.00  0.00    +0.370 A 
ATOM     19  C   LIG    1        0.388   0.886   9.865  0.00  0.00    -0.080 A 
ATOM     20  C   LIG    1        0.797   0.570   8.582  0.00  0.00    +0.360 A 
ATOM     21  N   LIG    1        0.486   1.382   7.585  0.00  0.00    -0.530 NA
ATOM     22  C   LIG    1       -0.201   2.496   7.803  0.00  0.00    +0.440 A 
ATOM     23  N   LIG    1       -0.610   2.833   9.019  0.00  0.00    -0.550 NA
BRANCH  18  25
ATOM     24  C   LIG    1       -1.492   3.628  11.421  0.00  0.00    +0.270 C 
ATOM     25  O   LIG    1       -0.755   2.409  11.304  0.00  0.00    -0.300 OA
ENDBRANCH  18  25
ENDBRANCH   1  22
TORSDOF 4
