REMARK  Name = ZINCkj00000wjVik.0
REMARK                            x       y       z     vdW  Elec       q    Type
REMARK                         _______ _______ _______ _____ _____    ______ ____
ROOT
ATOM      1  C   LIG    1       -0.982  -3.218   2.500  0.00  0.00    +0.520 C 
ATOM      2  N   LIG    1       -0.916  -2.488   3.631  0.00  0.00    -0.620 N 
ATOM      3  C   LIG    1       -0.011  -1.338   3.708  0.00  0.00    +0.290 C 
ATOM      4  O   LIG    1       -1.793  -4.115   2.404  0.00  0.00    -0.510 OA
ENDROOT
BRANCH   1  10
ATOM      5  C   LIG    1       -3.437  -3.241  -2.404  0.00  0.00    +0.180 C 
ATOM      6  C   LIG    1       -2.179  -3.364  -1.584  0.00  0.00    +0.220 A 
ATOM      7  N   LIG    1       -1.073  -3.946  -1.969  0.00  0.00    -0.480 NA
ATOM      8  C   LIG    1       -0.170  -3.863  -0.988  0.00  0.00    +0.030 A 
ATOM      9  C   LIG    1       -0.740  -3.212   0.049  0.00  0.00    -0.030 A 
ATOM     10  C   LIG    1       -0.049  -2.921   1.355  0.00  0.00    +0.080 C 
ATOM     11  C   LIG    1        1.194  -3.816   1.456  0.00  0.00    +0.050 C 
ATOM     12  C   LIG    1        2.007  -3.705   0.163  0.00  0.00    +0.030 C 
ATOM     13  C   LIG    1        1.246  -4.385  -0.981  0.00  0.00    +0.130 C 
ATOM     14  N   LIG    1       -2.009  -2.895  -0.326  0.00  0.00    -0.550 N 
ATOM     15  H   LIG    1       -2.667  -2.423   0.207  0.00  0.00    +0.410 HD
ENDBRANCH   1  10
BRANCH   2  16
ATOM     16  C   LIG    1       -1.748  -2.844   4.783  0.00  0.00    +0.320 C 
BRANCH  16  17
ATOM     17  C   LIG    1       -0.939  -3.713   5.748  0.00  0.00    -0.210 C 
ATOM     18  C   LIG    1        0.533  -3.962   5.409  0.00  0.00    +0.060 C 
ATOM     19  C   LIG    1       -0.490  -5.090   5.253  0.00  0.00    +0.100 C 
BRANCH  17  20
ATOM     20  C   LIG    1       -1.311  -3.581   7.226  0.00  0.00    +0.320 C 
BRANCH  20  21
ATOM     21  N   LIG    1       -1.211  -2.173   7.632  0.00  0.00    -0.640 N 
ATOM     22  H   LIG    1       -1.927  -1.636   7.166  0.00  0.00    +0.430 HD
ATOM     23  H   LIG    1       -0.303  -1.813   7.378  0.00  0.00    +0.430 HD
ATOM     24  H   LIG    1       -1.333  -2.101   8.631  0.00  0.00    +0.440 HD
ENDBRANCH  20  21
ENDBRANCH  17  20
ENDBRANCH  16  17
ENDBRANCH   2  16
TORSDOF 5
