REMARK  Name = ZINCah000000014y.0
REMARK                            x       y       z     vdW  Elec       q    Type
REMARK                         _______ _______ _______ _____ _____    ______ ____
ROOT
ATOM      1  C   LIG    1       -1.124   2.236   0.020  0.00  0.00    +0.560 C 
ATOM      2  N   LIG    1       -0.018   1.466   0.010  0.00  0.00    -0.620 N 
ATOM      3  C   LIG    1        0.002  -0.004   0.002  0.00  0.00    +0.240 C 
ATOM      4  C   LIG    1        1.482  -0.442   0.013  0.00  0.00    +0.030 C 
ATOM      5  C   LIG    1        2.207   0.798   0.598  0.00  0.00    +0.040 C 
ATOM      6  C   LIG    1        1.372   1.958  -0.001  0.00  0.00    +0.210 C 
ATOM      7  C   LIG    1        1.500   3.210   0.869  0.00  0.00    +0.030 C 
ATOM      8  O   LIG    1       -1.020   3.448   0.025  0.00  0.00    -0.540 OA
ENDROOT
BRANCH   1  10
ATOM      9  C   LIG    1       -3.546   2.372   0.033  0.00  0.00    +0.150 C 
ATOM     10  C   LIG    1       -2.455   1.612   0.023  0.00  0.00    -0.090 C 
ENDBRANCH   1  10
TORSDOF 1
