REMARK  Name = ZINCvU0000000Hk2.0
REMARK                            x       y       z     vdW  Elec       q    Type
REMARK                         _______ _______ _______ _____ _____    ______ ____
ROOT
ATOM      1  C   LIG    1        6.669  -3.552  -0.081  0.00  0.00    +0.150 C 
ATOM      2  C   LIG    1        5.662  -2.431  -0.066  0.00  0.00    -0.160 A 
ATOM      3  C   LIG    1        5.979  -1.136  -0.062  0.00  0.00    -0.030 A 
ATOM      4  C   LIG    1        4.833  -0.236  -0.046  0.00  0.00    -0.220 A 
ATOM      5  C   LIG    1        4.781   1.181  -0.038  0.00  0.00    +0.490 A 
ATOM      6  N   LIG    1        3.603   1.782  -0.028  0.00  0.00    -0.540 NA
ATOM      7  C   LIG    1        2.475   1.079  -0.016  0.00  0.00    +0.430 A 
ATOM      8  N   LIG    1        2.475  -0.242  -0.023  0.00  0.00    -0.520 NA
ATOM      9  C   LIG    1        3.621  -0.931  -0.038  0.00  0.00    +0.120 A 
ATOM     10  S   LIG    1        3.925  -2.662  -0.050  0.00  0.00    +0.190 S 
ENDROOT
BRANCH   7  11
ATOM     11  C   LIG    1        1.178   1.798   0.001  0.00  0.00    +0.170 A 
ATOM     12  C   LIG    1       -0.013   1.076   0.008  0.00  0.00    +0.030 A 
ATOM     13  C   LIG    1       -1.216   1.762   0.017  0.00  0.00    +0.060 A 
ATOM     14  C   LIG    1       -1.187   3.148   0.030  0.00  0.00    -0.010 A 
ATOM     15  C   LIG    1        0.033   3.802   0.023  0.00  0.00    +0.260 A 
ATOM     16  N   LIG    1        1.162   3.125   0.008  0.00  0.00    -0.440 NA
ENDBRANCH   7  11
BRANCH   3  17
ATOM     17  C   LIG    1        7.379  -0.652  -0.074  0.00  0.00    -0.040 A 
ATOM     18  C   LIG    1        7.883   0.058   1.015  0.00  0.00    +0.010 A 
ATOM     19  C   LIG    1        9.190   0.502   1.001  0.00  0.00    +0.020 A 
ATOM     20  C   LIG    1        9.996   0.253  -0.096  0.00  0.00    +0.020 A 
ATOM     21  C   LIG    1        9.499  -0.446  -1.181  0.00  0.00    +0.020 A 
ATOM     22  C   LIG    1        8.196  -0.900  -1.176  0.00  0.00    +0.030 A 
ENDBRANCH   3  17
BRANCH   5  23
ATOM     23  N   LIG    1        5.948   1.925  -0.045  0.00  0.00    -0.700 N 
ATOM     24  H   LIG    1        6.808   1.478  -0.056  0.00  0.00    +0.410 HD
BRANCH  23  25
ATOM     25  C   LIG    1        5.883   3.389  -0.037  0.00  0.00    +0.280 C 
BRANCH  25  26
ATOM     26  C   LIG    1        7.301   3.962  -0.047  0.00  0.00    +0.140 C 
BRANCH  26  27
ATOM     27  C   LIG    1        7.234   5.468  -0.038  0.00  0.00    +0.210 A 
ATOM     28  N   LIG    1        7.211   6.222   1.026  0.00  0.00    -0.480 NA
ATOM     29  C   LIG    1        7.151   7.509   0.655  0.00  0.00    +0.140 A 
ATOM     30  C   LIG    1        7.135   7.555  -0.691  0.00  0.00    +0.130 A 
ATOM     31  N   LIG    1        7.194   6.260  -1.131  0.00  0.00    -0.460 N 
ATOM     32  C   LIG    1        7.208   5.817  -2.527  0.00  0.00    +0.330 C 
ENDBRANCH  26  27
ENDBRANCH  25  26
ENDBRANCH  23  25
ENDBRANCH   5  23
TORSDOF 6
