REMARK  Name = ZINCpe000027pGXZ.0
REMARK                            x       y       z     vdW  Elec       q    Type
REMARK                         _______ _______ _______ _____ _____    ______ ____
ROOT
ATOM      1  C   LIG    1        4.018   2.348  -0.887  0.00  0.00    +0.430 A 
ATOM      2  C   LIG    1        5.208   3.093  -0.942  0.00  0.00    -0.060 A 
ATOM      3  N   LIG    1        5.676   4.083  -1.740  0.00  0.00    -0.450 NA
ATOM      4  C   LIG    1        6.868   4.428  -1.348  0.00  0.00    +0.480 A 
ATOM      5  N   LIG    1        7.239   3.679  -0.271  0.00  0.00    -0.470 N 
ATOM      6  C   LIG    1        6.205   2.822   0.010  0.00  0.00    +0.300 A 
ATOM      7  N   LIG    1        5.990   1.879   0.921  0.00  0.00    -0.530 NA
ATOM      8  C   LIG    1        4.859   1.205   0.934  0.00  0.00    +0.530 A 
ATOM      9  N   LIG    1        3.891   1.427   0.064  0.00  0.00    -0.550 NA
ENDROOT
BRANCH   1  10
ATOM     10  N   LIG    1        3.001   2.570  -1.798  0.00  0.00    -0.460 N 
BRANCH  10  11
ATOM     11  C   LIG    1        1.742   1.968  -1.338  0.00  0.00    +0.180 C 
ATOM     12  C   LIG    1        0.624   2.193  -2.377  0.00  0.00    +0.020 C 
ATOM     13  C   LIG    1       -0.667   2.457  -1.584  0.00  0.00    +0.000 C 
ATOM     14  C   LIG    1       -0.289   2.383  -0.090  0.00  0.00    -0.020 C 
ATOM     15  C   LIG    1       -1.059   3.434   0.713  0.00  0.00    +0.010 C 
ATOM     16  C   LIG    1        1.229   2.688  -0.066  0.00  0.00    +0.030 C 
ENDBRANCH  10  11
BRANCH  10  17
ATOM     17  C   LIG    1        3.368   2.071  -3.129  0.00  0.00    +0.260 C 
BRANCH  17  18
ATOM     18  C   LIG    1        3.684   0.576  -3.044  0.00  0.00    +0.130 C 
BRANCH  18  20
ATOM     19  C   LIG    1        2.706  -1.542  -2.496  0.00  0.00    +0.200 C 
ATOM     20  O   LIG    1        2.499  -0.143  -2.697  0.00  0.00    -0.380 OA
ENDBRANCH  18  20
ENDBRANCH  17  18
ENDBRANCH  10  17
ENDBRANCH   1  10
BRANCH   5  21
ATOM     21  C   LIG    1        8.510   3.772   0.453  0.00  0.00    +0.290 C 
BRANCH  21  22
ATOM     22  C   LIG    1        9.487   2.731  -0.098  0.00  0.00    +0.200 C 
BRANCH  22  23
ATOM     23  O   LIG    1        8.991   1.419   0.176  0.00  0.00    -0.540 OA
ATOM     24  H   LIG    1        8.874   1.232   1.118  0.00  0.00    +0.380 HD
ENDBRANCH  22  23
BRANCH  22  25
ATOM     25  C   LIG    1       10.852   2.910   0.571  0.00  0.00    +0.160 C 
BRANCH  25  26
ATOM     26  O   LIG    1       11.795   2.017  -0.025  0.00  0.00    -0.560 OA
ATOM     27  H   LIG    1       12.684   2.075   0.350  0.00  0.00    +0.380 HD
ENDBRANCH  25  26
ENDBRANCH  22  25
ENDBRANCH  21  22
ENDBRANCH   5  21
TORSDOF 10
