REMARK  Name = ZINCvU000000062M.0
REMARK                            x       y       z     vdW  Elec       q    Type
REMARK                         _______ _______ _______ _____ _____    ______ ____
ROOT
ATOM      1  C   LIG    1        2.684   1.256  -0.026  0.00  0.00    -0.000 A 
ATOM      2  C   LIG    1        3.962   1.848  -0.153  0.00  0.00    -0.180 A 
ATOM      3  C   LIG    1        4.410   3.173  -0.338  0.00  0.00    +0.120 A 
ATOM      4  N   LIG    1        5.711   3.169  -0.392  0.00  0.00    -0.230 NA
ATOM      5  N   LIG    1        6.186   1.860  -0.247  0.00  0.00    -0.390 N 
ATOM      6  C   LIG    1        7.593   1.451  -0.254  0.00  0.00    +0.360 C 
ATOM      7  C   LIG    1        3.529   4.391  -0.453  0.00  0.00    +0.170 C 
ATOM      8  C   LIG    1        5.107   1.027  -0.098  0.00  0.00    +0.320 A 
ATOM      9  N   LIG    1        4.985  -0.280   0.070  0.00  0.00    -0.480 NA
ATOM     10  C   LIG    1        3.804  -0.862   0.192  0.00  0.00    +0.240 A 
ATOM     11  C   LIG    1        2.619  -0.121   0.155  0.00  0.00    -0.020 A 
ENDROOT
BRANCH  10  12
ATOM     12  C   LIG    1        3.734  -2.332   0.378  0.00  0.00    -0.060 A 
ATOM     13  C   LIG    1        2.499  -2.962   0.513  0.00  0.00    +0.040 A 
ATOM     14  C   LIG    1        2.440  -4.331   0.682  0.00  0.00    +0.010 A 
ATOM     15  C   LIG    1        3.605  -5.075   0.726  0.00  0.00    +0.030 A 
ATOM     16  C   LIG    1        4.835  -4.454   0.598  0.00  0.00    +0.000 A 
ATOM     17  C   LIG    1        4.905  -3.087   0.423  0.00  0.00    +0.070 A 
ENDBRANCH  10  12
BRANCH   1  20
ATOM     18  N   LIG    1        0.358   1.608  -0.703  0.00  0.00    -0.660 N 
ATOM     19  H   LIG    1        0.393   0.762  -1.176  0.00  0.00    +0.420 HD
ATOM     20  C   LIG    1        1.456   2.077  -0.077  0.00  0.00    +0.560 C 
ATOM     21  O   LIG    1        1.436   3.175   0.445  0.00  0.00    -0.490 OA
BRANCH  18  25
ATOM     22  C   LIG    1       -3.186   3.803  -0.620  0.00  0.00    +0.160 A 
ATOM     23  C   LIG    1       -2.868   3.042  -1.735  0.00  0.00    -0.050 A 
ATOM     24  C   LIG    1       -1.694   2.315  -1.764  0.00  0.00    +0.060 A 
ATOM     25  C   LIG    1       -0.832   2.345  -0.675  0.00  0.00    +0.100 A 
ATOM     26  C   LIG    1       -1.154   3.103   0.443  0.00  0.00    +0.100 A 
ATOM     27  C   LIG    1       -2.325   3.834   0.468  0.00  0.00    -0.190 A 
BRANCH  27  28
ATOM     28  C   LIG    1       -2.672   4.661   1.679  0.00  0.00    +0.440 C 
ATOM     29  F   LIG    1       -3.883   4.213   2.218  0.00  0.00    -0.200 F 
ATOM     30  F   LIG    1       -2.796   6.004   1.307  0.00  0.00    -0.190 F 
ENDBRANCH  27  28
BRANCH  22  32
ATOM     31  C   LIG    1       -5.181   4.439  -1.747  0.00  0.00    +0.250 C 
ATOM     32  O   LIG    1       -4.342   4.518  -0.593  0.00  0.00    -0.300 OA
ENDBRANCH  22  32
ENDBRANCH  18  25
ENDBRANCH   1  20
TORSDOF 5
