REMARK  Name = ZINCpk000000nTRM.0
REMARK                            x       y       z     vdW  Elec       q    Type
REMARK                         _______ _______ _______ _____ _____    ______ ____
ROOT
ATOM      1  C   LIG    1       -4.761  -1.594   1.304  0.00  0.00    +0.570 C 
ATOM      2  N   LIG    1       -6.100  -1.709   1.413  0.00  0.00    -0.610 N 
ATOM      3  C   LIG    1       -6.747  -3.026   1.535  0.00  0.00    +0.300 C 
ATOM      4  C   LIG    1       -7.421  -3.096   2.905  0.00  0.00    +0.110 C 
ATOM      5  C   LIG    1       -8.220  -1.850   3.171  0.00  0.00    +0.240 A 
ATOM      6  N   LIG    1       -9.172  -1.896   4.097  0.00  0.00    -0.570 NA
ATOM      7  C   LIG    1       -9.900  -0.829   4.381  0.00  0.00    +0.570 A 
ATOM      8  N   LIG    1       -9.711   0.325   3.758  0.00  0.00    -0.570 NA
ATOM      9  C   LIG    1       -8.783   0.439   2.824  0.00  0.00    +0.380 A 
ATOM     10  C   LIG    1       -8.005  -0.665   2.498  0.00  0.00    -0.270 A 
ATOM     11  C   LIG    1       -6.969  -0.526   1.421  0.00  0.00    +0.350 C 
ATOM     12  O   LIG    1       -4.069  -2.591   1.238  0.00  0.00    -0.530 OA
ENDROOT
BRANCH   1  21
ATOM     13  C   LIG    1        0.060   1.098   2.264  0.00  0.00    +0.080 C 
ATOM     14  C   LIG    1       -1.210   1.851   2.664  0.00  0.00    -0.050 C 
ATOM     15  C   LIG    1       -1.166   3.275   2.151  0.00  0.00    +0.540 C 
ATOM     16  N   LIG    1       -2.204   3.425   1.311  0.00  0.00    -0.660 N 
ATOM     17  H   LIG    1       -2.404   4.251   0.843  0.00  0.00    +0.420 HD
ATOM     18  C   LIG    1       -2.958   2.263   1.187  0.00  0.00    +0.170 A 
ATOM     19  C   LIG    1       -4.099   1.996   0.428  0.00  0.00    +0.000 A 
ATOM     20  C   LIG    1       -4.682   0.751   0.466  0.00  0.00    +0.080 A 
ATOM     21  C   LIG    1       -4.136  -0.258   1.264  0.00  0.00    -0.150 A 
ATOM     22  C   LIG    1       -2.993   0.008   2.025  0.00  0.00    +0.130 A 
ATOM     23  O   LIG    1       -0.349   4.121   2.445  0.00  0.00    -0.490 OA
ATOM     24  C   LIG    1       -1.386   1.834   4.184  0.00  0.00    +0.080 C 
ATOM     25  C   LIG    1       -2.420   1.251   1.984  0.00  0.00    -0.140 A 
ENDBRANCH   1  21
BRANCH   7  26
ATOM     26  N   LIG    1      -10.883  -0.920   5.351  0.00  0.00    -0.820 N 
ATOM     27  H   LIG    1      -11.424  -0.145   5.568  0.00  0.00    +0.420 HD
ATOM     28  H   LIG    1      -11.032  -1.760   5.814  0.00  0.00    +0.420 HD
ENDBRANCH   7  26
TORSDOF 2
