REMARK  Name = ZINCpe000027pHuk.0
REMARK                            x       y       z     vdW  Elec       q    Type
REMARK                         _______ _______ _______ _____ _____    ______ ____
ROOT
ATOM      1  N   LIG    1        0.173  -4.711  -1.405  0.00  0.00    -0.990 NA
ENDROOT
BRANCH   1   2
ATOM      2  S   LIG    1        1.614  -5.019  -2.160  0.00  0.00    +2.600 S 
ATOM      3  O   LIG    1        2.546  -4.177  -1.494  0.00  0.00    -0.940 OA
ATOM      4  O   LIG    1        1.330  -4.848  -3.542  0.00  0.00    -0.930 OA
BRANCH   2   5
ATOM      5  C   LIG    1        1.955  -6.762  -1.791  0.00  0.00    -0.360 C 
BRANCH   5   6
ATOM      6  C   LIG    1        3.277  -7.172  -2.442  0.00  0.00    +0.350 C 
ATOM      7  O   LIG    1        4.341  -6.348  -1.935  0.00  0.00    -0.370 OA
ATOM      8  C   LIG    1        5.227  -6.153  -3.063  0.00  0.00    +0.220 C 
ATOM      9  C   LIG    1        4.223  -6.062  -4.240  0.00  0.00    +0.210 C 
ATOM     10  O   LIG    1        3.191  -6.995  -3.861  0.00  0.00    -0.370 OA
ENDBRANCH   5   6
ENDBRANCH   2   5
ENDBRANCH   1   2
BRANCH   1  11
ATOM     11  C   LIG    1        0.159  -4.230  -0.022  0.00  0.00    +0.370 C 
BRANCH  11  15
ATOM     12  C   LIG    1        0.002  -0.004   0.002  0.00  0.00    +0.340 A 
ATOM     13  N   LIG    1        1.159  -0.643  -0.018  0.00  0.00    -0.520 NA
ATOM     14  C   LIG    1        1.223  -1.962  -0.020  0.00  0.00    +0.350 A 
ATOM     15  C   LIG    1        0.073  -2.726  -0.013  0.00  0.00    -0.200 A 
ATOM     16  C   LIG    1       -1.163  -2.093   0.002  0.00  0.00    +0.140 A 
ATOM     17  C   LIG    1       -1.196  -0.709   0.010  0.00  0.00    -0.110 A 
ATOM     18 CL   LIG    1       -2.713   0.135   0.029  0.00  0.00    -0.040 Cl
BRANCH  12  20
ATOM     19  C   LIG    1        1.248   2.019   0.001  0.00  0.00    +0.260 C 
ATOM     20  O   LIG    1       -0.016   1.353   0.009  0.00  0.00    -0.300 OA
ENDBRANCH  12  20
ENDBRANCH  11  15
ENDBRANCH   1  11
BRANCH   1  21
ATOM     21  C   LIG    1       -1.088  -4.919  -2.122  0.00  0.00    +0.300 C 
BRANCH  21  22
ATOM     22  C   LIG    1       -1.547  -3.597  -2.740  0.00  0.00    -0.030 C 
ATOM     23  C   LIG    1       -0.543  -3.157  -3.808  0.00  0.00    +0.040 C 
BRANCH  22  24
ATOM     24  C   LIG    1       -2.924  -3.784  -3.381  0.00  0.00    +0.170 C 
BRANCH  24  25
ATOM     25  O   LIG    1       -3.404  -2.525  -3.856  0.00  0.00    -0.570 OA
ATOM     26  H   LIG    1       -4.274  -2.568  -4.276  0.00  0.00    +0.380 HD
ENDBRANCH  24  25
ENDBRANCH  22  24
ENDBRANCH  21  22
ENDBRANCH   1  21
TORSDOF 10
