REMARK  Name = ZINCrH000004tY1R.0
REMARK                            x       y       z     vdW  Elec       q    Type
REMARK                         _______ _______ _______ _____ _____    ______ ____
ROOT
ATOM      1  O   LIG    1        0.002  -0.004   0.002  0.00  0.00    -0.520 OA
ATOM      2  C   LIG    1       -0.014   1.209   0.009  0.00  0.00    +0.510 C 
ATOM      3  N   LIG    1       -1.191   1.867   0.018  0.00  0.00    -0.520 N 
ATOM      4  H   LIG    1       -1.204   2.837   0.023  0.00  0.00    +0.430 HD
ENDROOT
BRANCH   3   5
ATOM      5  N   LIG    1       -2.394   1.150   0.020  0.00  0.00    -0.520 N 
ATOM      6  H   LIG    1       -2.381   0.180   0.014  0.00  0.00    +0.430 HD
ATOM      7  C   LIG    1       -3.571   1.808   0.029  0.00  0.00    +0.560 C 
ATOM      8  O   LIG    1       -3.587   3.023   0.035  0.00  0.00    -0.520 OA
BRANCH   7   9
ATOM      9  C   LIG    1       -4.839   1.052   0.031  0.00  0.00    -0.170 A 
ATOM     10  C   LIG    1       -4.824  -0.344   0.023  0.00  0.00    +0.080 A 
ATOM     11  C   LIG    1       -6.013  -1.044   0.025  0.00  0.00    +0.000 A 
ATOM     12  C   LIG    1       -7.220  -0.367   0.035  0.00  0.00    +0.080 A 
ATOM     13  C   LIG    1       -7.245   1.015   0.042  0.00  0.00    -0.010 A 
ATOM     14  C   LIG    1       -6.062   1.731   0.046  0.00  0.00    +0.170 A 
ATOM     15  F   LIG    1       -6.087   3.082   0.059  0.00  0.00    -0.110 F 
ENDBRANCH   7   9
ENDBRANCH   3   5
BRANCH   2  16
ATOM     16  C   LIG    1        1.280   1.980   0.001  0.00  0.00    +0.170 C 
BRANCH  16  17
ATOM     17  C   LIG    1        2.439   1.016  -0.016  0.00  0.00    -0.160 A 
ATOM     18  C   LIG    1        3.133   0.571   1.044  0.00  0.00    +0.230 A 
ATOM     19  O   LIG    1        4.092  -0.279   0.639  0.00  0.00    -0.180 OA
ATOM     20  C   LIG    1        4.074  -0.420  -0.702  0.00  0.00    +0.040 A 
ATOM     21  C   LIG    1        4.851  -1.169  -1.594  0.00  0.00    +0.040 A 
ATOM     22  C   LIG    1        4.627  -1.139  -2.931  0.00  0.00    +0.060 A 
ATOM     23  C   LIG    1        3.599  -0.349  -3.481  0.00  0.00    -0.060 A 
ATOM     24  C   LIG    1        3.364  -0.317  -4.864  0.00  0.00    +0.030 A 
ATOM     25  C   LIG    1        2.360   0.458  -5.361  0.00  0.00    +0.010 A 
ATOM     26  C   LIG    1        1.559   1.221  -4.515  0.00  0.00    +0.010 A 
ATOM     27  C   LIG    1        1.760   1.212  -3.167  0.00  0.00    +0.010 A 
ATOM     28  C   LIG    1        2.782   0.427  -2.623  0.00  0.00    -0.000 A 
ATOM     29  C   LIG    1        3.038   0.383  -1.189  0.00  0.00    -0.110 A 
ENDBRANCH  16  17
ENDBRANCH   2  16
TORSDOF 4
