REMARK  Name = ZINCrD0000071GXo.0
REMARK                            x       y       z     vdW  Elec       q    Type
REMARK                         _______ _______ _______ _____ _____    ______ ____
ROOT
ATOM      1  C   LIG    1       -3.760  -7.588   0.076  0.00  0.00    -0.170 A 
ATOM      2  C   LIG    1       -2.653  -8.244   0.623  0.00  0.00    +0.140 A 
ATOM      3  C   LIG    1       -2.794  -9.510   1.146  0.00  0.00    -0.090 A 
ATOM      4  C   LIG    1       -4.033 -10.140   1.122  0.00  0.00    +0.170 A 
ATOM      5  C   LIG    1       -5.136  -9.493   0.574  0.00  0.00    -0.020 A 
ATOM      6  C   LIG    1       -5.004  -8.226   0.053  0.00  0.00    +0.140 A 
ENDROOT
BRANCH   1   7
ATOM      7  C   LIG    1       -3.614  -6.231  -0.482  0.00  0.00    +0.520 C 
ATOM      8  O   LIG    1       -4.576  -5.665  -0.962  0.00  0.00    -0.510 OA
BRANCH   7   9
ATOM      9  O   LIG    1       -2.414  -5.619  -0.459  0.00  0.00    -0.330 OA
BRANCH   9  10
ATOM     10  C   LIG    1       -2.345  -4.283  -1.025  0.00  0.00    +0.250 C 
BRANCH  10  13
ATOM     11  N   LIG    1       -0.631  -2.534  -1.375  0.00  0.00    -0.720 N 
ATOM     12  H   LIG    1       -1.320  -1.985  -1.781  0.00  0.00    +0.400 HD
ATOM     13  C   LIG    1       -0.935  -3.763  -0.912  0.00  0.00    +0.520 C 
ATOM     14  O   LIG    1       -0.074  -4.449  -0.404  0.00  0.00    -0.510 OA
BRANCH  11  15
ATOM     15  C   LIG    1        0.739  -2.027  -1.265  0.00  0.00    +0.230 C 
ATOM     16  C   LIG    1        1.562  -2.520  -2.457  0.00  0.00    +0.020 C 
BRANCH  15  17
ATOM     17  C   LIG    1        0.718  -0.497  -1.257  0.00  0.00    +0.020 C 
BRANCH  17  19
ATOM     18  C   LIG    1       -0.019   1.526   0.010  0.00  0.00    +0.020 C 
ATOM     19  C   LIG    1        0.002  -0.004   0.002  0.00  0.00    -0.010 C 
ENDBRANCH  17  19
ENDBRANCH  15  17
ENDBRANCH  11  15
ENDBRANCH  10  13
ENDBRANCH   9  10
ENDBRANCH   7   9
ENDBRANCH   1   7
BRANCH   4  20
ATOM     20  O   LIG    1       -4.167 -11.389   1.633  0.00  0.00    -0.300 OA
BRANCH  20  21
ATOM     21  C   LIG    1       -2.994 -11.995   2.180  0.00  0.00    +0.300 C 
BRANCH  21  22
ATOM     22  C   LIG    1       -3.333 -13.370   2.697  0.00  0.00    -0.220 A 
ATOM     23  C   LIG    1       -3.291 -14.546   2.027  0.00  0.00    +0.010 A 
ATOM     24  O   LIG    1       -3.677 -15.492   2.896  0.00  0.00    +0.100 OA
ATOM     25  N   LIG    1       -3.938 -15.021   3.978  0.00  0.00    -0.360 NA
ATOM     26  C   LIG    1       -2.888 -14.752   0.590  0.00  0.00    +0.190 C 
ATOM     27  C   LIG    1       -3.764 -13.730   3.994  0.00  0.00    +0.040 A 
ATOM     28  C   LIG    1       -3.982 -12.805   5.163  0.00  0.00    +0.160 C 
ENDBRANCH  21  22
ENDBRANCH  20  21
ENDBRANCH   4  20
TORSDOF 10
