REMARK  Name = ZINCkj000005gDH7.0
REMARK                            x       y       z     vdW  Elec       q    Type
REMARK                         _______ _______ _______ _____ _____    ______ ____
ROOT
ATOM      1  N   LIG    1       -3.102   2.181   5.855  0.00  0.00    -0.480 N 
ATOM      2  H   LIG    1       -2.424   1.467   5.635  0.00  0.00    +0.440 HD
ATOM      3  H   LIG    1       -3.671   1.876   6.631  0.00  0.00    +0.440 HD
ENDROOT
BRANCH   1   4
ATOM      4  C   LIG    1       -3.958   2.421   4.685  0.00  0.00    +0.170 C 
BRANCH   4   5
ATOM      5  C   LIG    1       -5.047   3.396   5.051  0.00  0.00    +0.510 C 
ATOM      6  O   LIG    1       -5.447   3.458   6.194  0.00  0.00    -0.520 OA
ATOM      7  N   LIG    1       -5.576   4.200   4.107  0.00  0.00    -0.820 N 
ATOM      8  H   LIG    1       -6.321   4.781   4.328  0.00  0.00    +0.420 HD
ATOM      9  H   LIG    1       -5.213   4.197   3.208  0.00  0.00    +0.410 HD
ENDBRANCH   4   5
BRANCH   4  10
ATOM     10  C   LIG    1       -4.586   1.101   4.233  0.00  0.00    +0.000 C 
ATOM     11  C   LIG    1       -5.534   0.589   5.319  0.00  0.00    +0.050 C 
BRANCH  10  13
ATOM     12  C   LIG    1       -5.921  -0.010   2.438  0.00  0.00    +0.030 C 
ATOM     13  C   LIG    1       -5.368   1.326   2.938  0.00  0.00    +0.040 C 
ENDBRANCH  10  13
ENDBRANCH   4  10
ENDBRANCH   1   4
BRANCH   1  14
ATOM     14  C   LIG    1       -2.406   3.423   6.216  0.00  0.00    +0.280 C 
BRANCH  14  15
ATOM     15  C   LIG    1       -1.529   3.177   7.416  0.00  0.00    +0.500 C 
ATOM     16  N   LIG    1       -0.787   4.180   7.926  0.00  0.00    -0.580 N 
ATOM     17  O   LIG    1       -1.490   2.076   7.923  0.00  0.00    -0.520 OA
BRANCH  16  18
ATOM     18  C   LIG    1       -0.919   5.536   7.387  0.00  0.00    +0.210 C 
ATOM     19  C   LIG    1        0.158   5.770   6.325  0.00  0.00    +0.030 C 
ATOM     20  C   LIG    1       -0.751   6.553   8.517  0.00  0.00    +0.050 C 
ENDBRANCH  16  18
BRANCH  16  21
ATOM     21  C   LIG    1        0.152   3.915   9.018  0.00  0.00    +0.300 C 
BRANCH  21  22
ATOM     22  C   LIG    1        1.446   3.330   8.448  0.00  0.00    -0.040 C 
ATOM     23  C   LIG    1        2.353   2.884   9.597  0.00  0.00    +0.030 C 
ATOM     24  C   LIG    1        2.164   4.396   7.617  0.00  0.00    +0.020 C 
ENDBRANCH  21  22
ENDBRANCH  16  21
ENDBRANCH  14  15
ENDBRANCH   1  14
TORSDOF 9
