REMARK  Name = ZINCkj00000KAklp.0
REMARK                            x       y       z     vdW  Elec       q    Type
REMARK                         _______ _______ _______ _____ _____    ______ ____
ROOT
ATOM      1  N   LIG    1       -0.700   1.560   1.217  0.00  0.00    -0.510 N 
ATOM      2  H   LIG    1       -0.787   2.564   1.182  0.00  0.00    +0.430 HD
ATOM      3  H   LIG    1       -0.168   1.295   2.032  0.00  0.00    +0.440 HD
ENDROOT
BRANCH   1   5
ATOM      4  C   LIG    1       -0.753   1.593  -1.232  0.00  0.00    +0.110 C 
ATOM      5  C   LIG    1       -0.013   1.086   0.008  0.00  0.00    +0.180 C 
BRANCH   5   6
ATOM      6  C   LIG    1        1.423   1.615  -0.003  0.00  0.00    +0.200 C 
BRANCH   6   7
ATOM      7  C   LIG    1        2.187   1.018   1.151  0.00  0.00    +0.140 A 
ATOM      8  N   LIG    1        1.851   1.070   2.411  0.00  0.00    -0.320 NA
ATOM      9  N   LIG    1        2.730   0.453   3.119  0.00  0.00    -0.280 NA
ATOM     10  C   LIG    1        3.671  -0.012   2.343  0.00  0.00    +0.430 A 
ATOM     11  N   LIG    1        3.354   0.334   1.072  0.00  0.00    -0.570 N 
ATOM     12  H   LIG    1        3.859   0.132   0.269  0.00  0.00    +0.440 HD
ENDBRANCH   6   7
ENDBRANCH   5   6
ENDBRANCH   1   5
BRANCH   1  13
ATOM     13  C   LIG    1       -2.037   0.955   1.288  0.00  0.00    +0.380 C 
BRANCH  13  14
ATOM     14  C   LIG    1       -2.743   1.441   2.528  0.00  0.00    +0.000 A 
ATOM     15  N   LIG    1       -2.636   0.923   3.724  0.00  0.00    -0.240 NA
ATOM     16  N   LIG    1       -3.445   1.663   4.596  0.00  0.00    -0.330 N 
ATOM     17  C   LIG    1       -4.047   2.635   3.879  0.00  0.00    +0.270 A 
ATOM     18  C   LIG    1       -3.630   2.521   2.597  0.00  0.00    -0.080 A 
BRANCH  16  19
ATOM     19  C   LIG    1       -3.613   1.421   6.031  0.00  0.00    +0.250 C 
ATOM     20  C   LIG    1       -4.813   2.072   6.722  0.00  0.00    +0.140 C 
ATOM     21  C   LIG    1       -4.802   0.563   6.468  0.00  0.00    +0.210 C 
ATOM     22  F   LIG    1       -4.622  -0.277   7.573  0.00  0.00    -0.140 F 
ATOM     23  F   LIG    1       -5.646   0.070   5.467  0.00  0.00    -0.150 F 
ENDBRANCH  16  19
ENDBRANCH  13  14
ENDBRANCH   1  13
TORSDOF 6
