REMARK  Name = ZINCkj00000y7AxA.0
REMARK                            x       y       z     vdW  Elec       q    Type
REMARK                         _______ _______ _______ _____ _____    ______ ____
ROOT
ATOM      1  C   LIG    1       -4.871   6.633  -1.343  0.00  0.00    +0.210 C 
ENDROOT
BRANCH   1   2
ATOM      2  O   LIG    1       -5.903   5.647  -1.407  0.00  0.00    -0.540 OA
ATOM      3  H   LIG    1       -6.025   5.262  -2.286  0.00  0.00    +0.390 HD
ENDBRANCH   1   2
BRANCH   1   4
ATOM      4  C   LIG    1       -5.204   7.782  -2.297  0.00  0.00    +0.050 C 
BRANCH   4   5
ATOM      5  C   LIG    1       -6.464   8.500  -1.811  0.00  0.00    +0.140 C 
ATOM      6  C   LIG    1       -6.784   9.667  -2.751  0.00  0.00    -0.010 C 
ATOM      7  C   LIG    1       -8.000  10.427  -2.214  0.00  0.00    +0.200 C 
ATOM      8  O   LIG    1       -7.728  10.880  -0.886  0.00  0.00    -0.380 OA
ATOM      9  C   LIG    1       -7.468   9.829   0.048  0.00  0.00    +0.200 C 
ATOM     10  C   LIG    1       -6.231   9.046  -0.399  0.00  0.00    -0.030 C 
BRANCH   5  11
ATOM     11  O   LIG    1       -7.560   7.583  -1.795  0.00  0.00    -0.540 OA
ATOM     12  H   LIG    1       -8.394   7.972  -1.496  0.00  0.00    +0.380 HD
ENDBRANCH   5  11
ENDBRANCH   4   5
ENDBRANCH   1   4
BRANCH   1  13
ATOM     13  C   LIG    1       -3.538   6.003  -1.749  0.00  0.00    +0.230 C 
BRANCH  13  14
ATOM     14  N   LIG    1       -3.218   4.900  -0.832  0.00  0.00    -0.500 N 
ATOM     15  H   LIG    1       -3.150   5.255   0.110  0.00  0.00    +0.430 HD
ATOM     16  H   LIG    1       -3.947   4.204  -0.878  0.00  0.00    +0.430 HD
BRANCH  14  17
ATOM     17  C   LIG    1       -1.938   4.295  -1.222  0.00  0.00    +0.280 C 
BRANCH  17  18
ATOM     18  C   LIG    1       -1.605   3.146  -0.268  0.00  0.00    -0.010 C 
ATOM     19  C   LIG    1       -1.243   3.694   1.135  0.00  0.00    +0.040 C 
ATOM     20  C   LIG    1       -0.385   2.553   1.738  0.00  0.00    +0.060 C 
ATOM     21  C   LIG    1        0.447   2.036   0.546  0.00  0.00    +0.280 C 
ATOM     22  F   LIG    1        1.705   2.647   0.540  0.00  0.00    -0.190 F 
ATOM     23  F   LIG    1        0.589   0.647   0.627  0.00  0.00    -0.190 F 
ATOM     24  C   LIG    1       -0.328   2.414  -0.729  0.00  0.00    +0.060 C 
ENDBRANCH  17  18
ENDBRANCH  14  17
ENDBRANCH  13  14
ENDBRANCH   1  13
TORSDOF 8
