REMARK  Name = ZINCtV000002I1N8.0
REMARK                            x       y       z     vdW  Elec       q    Type
REMARK                         _______ _______ _______ _____ _____    ______ ____
ROOT
ATOM      1  S   LIG    1        2.204   2.489   0.886  0.00  0.00    +0.090 S 
ENDROOT
BRANCH   1   5
ATOM      2  C   LIG    1        6.074   2.468   1.111  0.00  0.00    +0.160 A 
ATOM      3  N   LIG    1        5.740   1.946   2.254  0.00  0.00    -0.240 NA
ATOM      4  N   LIG    1        4.458   1.886   2.343  0.00  0.00    -0.270 NA
ATOM      5  C   LIG    1        3.925   2.364   1.244  0.00  0.00    +0.140 A 
ATOM      6  O   LIG    1        4.937   2.745   0.443  0.00  0.00    -0.200 OA
BRANCH   2   7
ATOM      7  C   LIG    1        7.478   2.717   0.622  0.00  0.00    +0.380 C 
BRANCH   7   8
ATOM      8  O   LIG    1        7.946   1.567  -0.086  0.00  0.00    -0.310 OA
BRANCH   8  13
ATOM      9  C   LIG    1       13.160   1.816  -2.202  0.00  0.00    +0.100 C 
ATOM     10  C   LIG    1       11.765   1.750  -1.636  0.00  0.00    -0.120 A 
ATOM     11  C   LIG    1       11.002   0.610  -1.813  0.00  0.00    +0.050 A 
ATOM     12  C   LIG    1        9.723   0.547  -1.295  0.00  0.00    -0.010 A 
ATOM     13  C   LIG    1        9.204   1.627  -0.597  0.00  0.00    +0.120 A 
ATOM     14  C   LIG    1        9.970   2.771  -0.425  0.00  0.00    -0.070 A 
ATOM     15  C   LIG    1       11.251   2.828  -0.940  0.00  0.00    +0.050 A 
ENDBRANCH   8  13
ENDBRANCH   7   8
ENDBRANCH   2   7
ENDBRANCH   1   5
BRANCH   1  16
ATOM     16  C   LIG    1        1.515   1.790   2.407  0.00  0.00    +0.120 C 
BRANCH  16  17
ATOM     17  C   LIG    1        0.013   1.908   2.378  0.00  0.00    -0.070 A 
ATOM     18  C   LIG    1       -0.654   1.950   1.169  0.00  0.00    +0.020 A 
ATOM     19  C   LIG    1       -2.032   2.058   1.143  0.00  0.00    +0.010 A 
ATOM     20  C   LIG    1       -2.743   2.123   2.326  0.00  0.00    +0.020 A 
ATOM     21  C   LIG    1       -2.076   2.076   3.536  0.00  0.00    +0.020 A 
ATOM     22  C   LIG    1       -0.698   1.974   3.562  0.00  0.00    -0.060 A 
ATOM     23  C   LIG    1        0.030   1.927   4.882  0.00  0.00    +0.090 C 
ENDBRANCH  16  17
BRANCH  16  24
ATOM     24  C   LIG    1        1.903   0.338   2.513  0.00  0.00    -0.090 A 
ATOM     25  C   LIG    1        1.590  -0.538   1.490  0.00  0.00    +0.020 A 
ATOM     26  C   LIG    1        1.949  -1.869   1.585  0.00  0.00    +0.000 A 
ATOM     27  C   LIG    1        2.615  -2.327   2.708  0.00  0.00    +0.010 A 
ATOM     28  C   LIG    1        2.924  -1.452   3.732  0.00  0.00    +0.000 A 
ATOM     29  C   LIG    1        2.568  -0.120   3.635  0.00  0.00    +0.040 A 
ENDBRANCH  16  24
ENDBRANCH   1  16
TORSDOF 7
