REMARK  Name = ZINCpk00000KfKmS.2
REMARK                            x       y       z     vdW  Elec       q    Type
REMARK                         _______ _______ _______ _____ _____    ______ ____
ROOT
ATOM      1  N   LIG    1       -0.221   0.798   0.839  0.00  0.00    -0.600 N 
ATOM      2  C   LIG    1       -1.224   1.648   0.544  0.00  0.00    +0.500 C 
ATOM      3  O   LIG    1       -1.447   2.597   1.266  0.00  0.00    -0.530 OA
ATOM      4  C   LIG    1        0.117  -0.286  -0.086  0.00  0.00    +0.290 C 
ENDROOT
BRANCH   2   5
ATOM      5  C   LIG    1       -2.068   1.420  -0.683  0.00  0.00    +0.180 C 
ATOM      6  C   LIG    1       -1.309   1.902  -1.921  0.00  0.00    +0.070 C 
BRANCH   5   7
ATOM      7  N   LIG    1       -3.326   2.168  -0.558  0.00  0.00    -0.510 NA
ATOM      8  C   LIG    1       -3.081   3.616  -0.567  0.00  0.00    +0.180 C 
ATOM      9  C   LIG    1       -4.418   4.361  -0.582  0.00  0.00    +0.020 C 
ATOM     10  C   LIG    1       -5.229   3.969   0.657  0.00  0.00    +0.020 C 
ATOM     11  C   LIG    1       -5.429   2.451   0.667  0.00  0.00    +0.000 C 
ATOM     12  C   LIG    1       -4.063   1.761   0.646  0.00  0.00    +0.170 C 
BRANCH  11  13
ATOM     13  C   LIG    1       -6.187   2.045   1.932  0.00  0.00    +0.160 C 
BRANCH  13  14
ATOM     14  O   LIG    1       -7.504   2.599   1.897  0.00  0.00    -0.570 OA
ATOM     15  H   LIG    1       -8.043   2.381   2.669  0.00  0.00    +0.380 HD
ENDBRANCH  13  14
ENDBRANCH  11  13
ENDBRANCH   5   7
ENDBRANCH   2   5
BRANCH   1  16
ATOM     16  C   LIG    1        0.532   0.958   2.086  0.00  0.00    +0.330 C 
BRANCH  16  19
ATOM     17  N   LIG    1        2.550   2.160   2.860  0.00  0.00    -0.670 N 
ATOM     18  H   LIG    1        2.443   1.725   3.721  0.00  0.00    +0.410 HD
ATOM     19  C   LIG    1        1.710   1.867   1.848  0.00  0.00    +0.500 C 
ATOM     20  O   LIG    1        1.902   2.335   0.746  0.00  0.00    -0.510 OA
BRANCH  17  25
ATOM     21  C   LIG    1        6.714   5.936   2.089  0.00  0.00    +0.100 C 
ATOM     22  C   LIG    1        5.608   4.933   2.294  0.00  0.00    -0.100 A 
ATOM     23  C   LIG    1        4.400   5.095   1.641  0.00  0.00    +0.030 A 
ATOM     24  C   LIG    1        3.384   4.177   1.826  0.00  0.00    +0.020 A 
ATOM     25  C   LIG    1        3.578   3.091   2.670  0.00  0.00    +0.140 A 
ATOM     26  C   LIG    1        4.790   2.934   3.328  0.00  0.00    -0.010 A 
ATOM     27  C   LIG    1        5.803   3.852   3.134  0.00  0.00    +0.030 A 
ENDBRANCH  17  25
ENDBRANCH  16  19
ENDBRANCH   1  16
TORSDOF 7
