REMARK  Name = ZINCqH0000050gKz.0
REMARK                            x       y       z     vdW  Elec       q    Type
REMARK                         _______ _______ _______ _____ _____    ______ ____
ROOT
ATOM      1  O   LIG    1        1.139   1.890  -0.015  0.00  0.00    -0.320 OA
ENDROOT
BRANCH   1   2
ATOM      2  C   LIG    1       -0.014   1.203  -0.018  0.00  0.00    +0.470 C 
ATOM      3  O   LIG    1        0.002  -0.005  -0.032  0.00  0.00    -0.480 OA
BRANCH   2  10
ATOM      4  C   LIG    1       -6.160   3.638   3.326  0.00  0.00    +0.100 C 
ATOM      5  C   LIG    1       -5.207   2.905   2.417  0.00  0.00    -0.110 A 
ATOM      6  C   LIG    1       -3.867   3.249   2.393  0.00  0.00    +0.070 A 
ATOM      7  C   LIG    1       -2.999   2.578   1.561  0.00  0.00    -0.180 A 
ATOM      8  C   LIG    1       -3.449   1.549   0.745  0.00  0.00    +0.100 A 
ATOM      9  O   LIG    1       -2.430   1.014   0.017  0.00  0.00    -0.280 OA
ATOM     10  C   LIG    1       -1.330   1.939  -0.010  0.00  0.00    +0.230 C 
ATOM     11  C   LIG    1       -4.800   1.210   0.772  0.00  0.00    +0.000 A 
ATOM     12  C   LIG    1       -1.510   2.724   1.311  0.00  0.00    +0.120 C 
ATOM     13  C   LIG    1       -5.668   1.886   1.604  0.00  0.00    -0.050 A 
ATOM     14  C   LIG    1       -7.128   1.512   1.626  0.00  0.00    +0.110 C 
ENDBRANCH   2  10
ENDBRANCH   1   2
BRANCH   1  15
ATOM     15  C   LIG    1        2.367   1.116  -0.030  0.00  0.00    +0.270 C 
BRANCH  15  16
ATOM     16  C   LIG    1        3.550   2.051  -0.024  0.00  0.00    +0.520 C 
ATOM     17  N   LIG    1        4.802   1.553  -0.035  0.00  0.00    -0.660 N 
ATOM     18  H   LIG    1        4.944   0.596   0.034  0.00  0.00    +0.420 HD
ATOM     19  O   LIG    1        3.374   3.251  -0.009  0.00  0.00    -0.490 OA
BRANCH  17  20
ATOM     20  C   LIG    1        5.898   2.417  -0.147  0.00  0.00    +0.150 A 
ATOM     21  C   LIG    1        5.744   3.661  -0.745  0.00  0.00    +0.040 A 
ATOM     22  C   LIG    1        6.827   4.511  -0.853  0.00  0.00    +0.050 A 
ATOM     23  C   LIG    1        8.063   4.125  -0.366  0.00  0.00    -0.050 A 
ATOM     24  C   LIG    1        8.219   2.886   0.230  0.00  0.00    +0.050 A 
ATOM     25 CL   LIG    1        9.422   5.197  -0.504  0.00  0.00    -0.070 Cl
ATOM     26  C   LIG    1        7.138   2.034   0.345  0.00  0.00    -0.100 A 
ATOM     27  C   LIG    1        7.307   0.687   1.000  0.00  0.00    +0.110 C 
ENDBRANCH  17  20
ENDBRANCH  15  16
ENDBRANCH   1  15
TORSDOF 5
