REMARK  Name = ZINCtj0000003FIK.1
REMARK                            x       y       z     vdW  Elec       q    Type
REMARK                         _______ _______ _______ _____ _____    ______ ____
ROOT
ATOM      1  C   LIG    1       -1.187   1.624   0.017  0.00  0.00    +0.520 C 
ATOM      2  N   LIG    1       -0.011   0.966   0.007  0.00  0.00    -0.720 N 
ATOM      3  H   LIG    1        0.002  -0.004   0.002  0.00  0.00    +0.410 HD
ATOM      4  O   LIG    1       -1.204   2.837   0.023  0.00  0.00    -0.490 OA
ENDROOT
BRANCH   1   5
ATOM      5  C   LIG    1       -2.482   0.853   0.018  0.00  0.00    +0.280 C 
BRANCH   5  11
ATOM      6  C   LIG    1       -2.738  -2.253   0.036  0.00  0.00    +0.220 C 
ATOM      7  C   LIG    1       -2.653  -1.338   1.231  0.00  0.00    +0.190 A 
ATOM      8  N   LIG    1       -2.670  -1.695   2.492  0.00  0.00    -0.290 NA
ATOM      9  N   LIG    1       -2.582  -0.628   3.209  0.00  0.00    -0.060 NA
ATOM     10  N   LIG    1       -2.506   0.400   2.437  0.00  0.00    -0.080 NA
ATOM     11  N   LIG    1       -2.542   0.003   1.210  0.00  0.00    -0.310 N 
ENDBRANCH   5  11
BRANCH   5  12
ATOM     12  C   LIG    1       -3.658   1.831   0.029  0.00  0.00    +0.150 C 
BRANCH  12  13
ATOM     13  C   LIG    1       -4.950   1.065  -0.092  0.00  0.00    -0.080 A 
ATOM     14  C   LIG    1       -5.604   0.627   1.044  0.00  0.00    +0.000 A 
ATOM     15  C   LIG    1       -6.789  -0.076   0.934  0.00  0.00    +0.060 A 
ATOM     16  C   LIG    1       -7.322  -0.342  -0.313  0.00  0.00    +0.000 A 
ATOM     17  C   LIG    1       -6.669   0.097  -1.452  0.00  0.00    +0.110 A 
ATOM     18  F   LIG    1       -7.189  -0.162  -2.672  0.00  0.00    -0.130 F 
ATOM     19  C   LIG    1       -5.484   0.805  -1.341  0.00  0.00    -0.010 A 
ENDBRANCH  12  13
ENDBRANCH   5  12
ENDBRANCH   1   5
BRANCH   2  20
ATOM     20  C   LIG    1        1.248   1.716  -0.001  0.00  0.00    +0.320 C 
BRANCH  20  21
ATOM     21  C   LIG    1        2.424   0.737  -0.017  0.00  0.00    +0.160 C 
ATOM     22  C   LIG    1        3.739   1.520  -0.025  0.00  0.00    +0.260 C 
ATOM     23  N   LIG    1        4.867   0.578   0.017  0.00  0.00    -0.380 N 
ATOM     24  C   LIG    1        4.783  -0.229   1.242  0.00  0.00    +0.240 C 
ATOM     25  C   LIG    1        3.466  -1.008   1.248  0.00  0.00    +0.270 C 
ATOM     26  H   LIG    1        4.830  -0.028  -0.788  0.00  0.00    +0.420 HD
ATOM     27  O   LIG    1        2.374  -0.089   1.149  0.00  0.00    -0.350 OA
BRANCH  23  28
ATOM     28  C   LIG    1        6.131   1.327   0.009  0.00  0.00    +0.260 C 
BRANCH  28  29
ATOM     29  C   LIG    1        7.303   0.347  -0.072  0.00  0.00    -0.030 C 
ATOM     30  C   LIG    1        8.620   1.117   0.045  0.00  0.00    +0.070 C 
ATOM     31  C   LIG    1        7.260  -0.389  -1.412  0.00  0.00    +0.040 C 
ENDBRANCH  28  29
ENDBRANCH  23  28
ENDBRANCH  20  21
ENDBRANCH   2  20
TORSDOF 8
