REMARK  Name = ZINCtj0000003FIK.0
REMARK                            x       y       z     vdW  Elec       q    Type
REMARK                         _______ _______ _______ _____ _____    ______ ____
ROOT
ATOM      1  C   LIG    1        3.909   5.734   0.105  0.00  0.00    +0.520 C 
ATOM      2  N   LIG    1        2.753   5.042   0.063  0.00  0.00    -0.720 N 
ATOM      3  H   LIG    1        1.906   5.513   0.038  0.00  0.00    +0.410 HD
ATOM      4  O   LIG    1        4.968   5.144   0.137  0.00  0.00    -0.490 OA
ENDROOT
BRANCH   1   5
ATOM      5  C   LIG    1        3.885   7.241   0.114  0.00  0.00    +0.280 C 
BRANCH   5  11
ATOM      6  C   LIG    1        1.313   9.000   0.073  0.00  0.00    +0.220 C 
ATOM      7  C   LIG    1        2.036   8.470   1.284  0.00  0.00    +0.190 A 
ATOM      8  N   LIG    1        1.706   8.661   2.538  0.00  0.00    -0.290 NA
ATOM      9  N   LIG    1        2.569   8.050   3.275  0.00  0.00    -0.060 NA
ATOM     10  N   LIG    1        3.439   7.471   2.523  0.00  0.00    -0.080 NA
ATOM     11  N   LIG    1        3.148   7.711   1.289  0.00  0.00    -0.310 N 
ENDBRANCH   5  11
BRANCH   5  12
ATOM     12  C   LIG    1        5.318   7.773   0.164  0.00  0.00    +0.150 C 
BRANCH  12  13
ATOM     13  C   LIG    1        5.300   9.276   0.048  0.00  0.00    -0.080 A 
ATOM     14  C   LIG    1        5.216  10.055   1.186  0.00  0.00    +0.000 A 
ATOM     15  C   LIG    1        5.200  11.434   1.082  0.00  0.00    +0.060 A 
ATOM     16  C   LIG    1        5.268  12.034  -0.161  0.00  0.00    +0.000 A 
ATOM     17  C   LIG    1        5.352  11.254  -1.302  0.00  0.00    +0.110 A 
ATOM     18  F   LIG    1        5.418  11.839  -2.518  0.00  0.00    -0.130 F 
ATOM     19  C   LIG    1        5.373   9.874  -1.196  0.00  0.00    -0.010 A 
ENDBRANCH  12  13
ENDBRANCH   5  12
ENDBRANCH   1   5
BRANCH   2  20
ATOM     20  C   LIG    1        2.777   3.577   0.056  0.00  0.00    +0.320 C 
BRANCH  20  21
ATOM     21  C   LIG    1        1.343   3.044   0.005  0.00  0.00    +0.150 C 
ATOM     22  C   LIG    1        1.367   1.514  -0.003  0.00  0.00    +0.260 C 
ATOM     23  N   LIG    1       -0.012   1.005   0.008  0.00  0.00    -0.380 N 
ATOM     24  C   LIG    1       -0.698   1.479   1.217  0.00  0.00    +0.240 C 
ATOM     25  C   LIG    1       -0.718   3.010   1.223  0.00  0.00    +0.270 C 
ATOM     26  H   LIG    1        0.002  -0.004   0.002  0.00  0.00    +0.430 HD
ATOM     27  O   LIG    1        0.624   3.498   1.155  0.00  0.00    -0.350 OA
BRANCH  23  28
ATOM     28  C   LIG    1       -0.722   1.492  -1.182  0.00  0.00    +0.250 C 
BRANCH  28  29
ATOM     29  C   LIG    1       -2.116   0.863  -1.236  0.00  0.00    -0.030 C 
ATOM     30  C   LIG    1       -1.987  -0.649  -1.433  0.00  0.00    +0.040 C 
ATOM     31  C   LIG    1       -2.901   1.463  -2.404  0.00  0.00    +0.070 C 
ENDBRANCH  28  29
ENDBRANCH  23  28
ENDBRANCH  20  21
ENDBRANCH   2  20
TORSDOF 8
