REMARK  Name = ZINCkj000005h4fP.0
REMARK                            x       y       z     vdW  Elec       q    Type
REMARK                         _______ _______ _______ _____ _____    ______ ____
ROOT
ATOM      1  C   LIG    1        1.215  -2.135   0.104  0.00  0.00    -0.040 A 
ATOM      2  C   LIG    1        1.082  -2.915  -1.008  0.00  0.00    +0.010 A 
ATOM      3  C   LIG    1        1.123  -4.369  -0.875  0.00  0.00    +0.530 A 
ATOM      4  N   LIG    1        1.280  -4.950   0.327  0.00  0.00    -0.630 N 
ATOM      5  H   LIG    1        1.300  -5.918   0.388  0.00  0.00    +0.420 HD
ATOM      6  C   LIG    1        1.412  -4.198   1.474  0.00  0.00    +0.190 A 
ATOM      7  C   LIG    1        1.573  -4.819   2.710  0.00  0.00    -0.020 A 
ATOM      8  C   LIG    1        1.704  -4.056   3.849  0.00  0.00    +0.090 A 
ATOM      9  C   LIG    1        1.677  -2.670   3.779  0.00  0.00    +0.000 A 
ATOM     10  C   LIG    1        1.520  -2.039   2.577  0.00  0.00    +0.070 A 
ATOM     11  O   LIG    1        1.010  -5.066  -1.868  0.00  0.00    -0.510 OA
ATOM     12  C   LIG    1        1.385  -2.794   1.408  0.00  0.00    -0.120 A 
ENDROOT
BRANCH   1  15
ATOM     13  C   LIG    1       -1.240  -0.778  -0.227  0.00  0.00    +0.290 C 
ATOM     14  N   LIG    1        0.003  -0.013  -0.104  0.00  0.00    -0.620 N 
ATOM     15  C   LIG    1        1.183  -0.655   0.001  0.00  0.00    +0.580 C 
ATOM     16  O   LIG    1        2.220  -0.023   0.011  0.00  0.00    -0.490 OA
BRANCH  14  17
ATOM     17  C   LIG    1       -0.036   1.452  -0.096  0.00  0.00    +0.270 C 
ATOM     18  C   LIG    1       -0.916   1.958   1.066  0.00  0.00    +0.080 C 
ATOM     19  C   LIG    1       -2.059   2.746   0.390  0.00  0.00    +0.280 C 
ATOM     20  N   LIG    1       -2.139   2.185  -0.984  0.00  0.00    -0.520 N 
ATOM     21  H   LIG    1       -2.587   2.840  -1.607  0.00  0.00    +0.440 HD
ATOM     22  H   LIG    1       -2.636   1.307  -0.978  0.00  0.00    +0.430 HD
ATOM     23  C   LIG    1       -0.719   1.977  -1.377  0.00  0.00    +0.280 C 
ENDBRANCH  14  17
ENDBRANCH   1  15
TORSDOF 2
