REMARK  Name = ZINCrD00000eA74G.0
REMARK                            x       y       z     vdW  Elec       q    Type
REMARK                         _______ _______ _______ _____ _____    ______ ____
ROOT
ATOM      1  C   LIG    1        1.702  -6.107  -3.052  0.00  0.00    +0.530 C 
ATOM      2  N   LIG    1        2.361  -5.138  -2.386  0.00  0.00    -0.600 N 
ATOM      3  C   LIG    1        2.232  -5.042  -0.914  0.00  0.00    +0.370 C 
ATOM      4  C   LIG    1        1.263  -3.907  -0.635  0.00  0.00    -0.270 A 
ATOM      5  C   LIG    1        1.498  -2.623  -0.989  0.00  0.00    +0.120 A 
ATOM      6  N   LIG    1        0.459  -1.883  -0.560  0.00  0.00    -0.320 N 
ATOM      7  N   LIG    1       -0.458  -2.750   0.054  0.00  0.00    -0.290 NA
ATOM      8  C   LIG    1        2.721  -2.151  -1.747  0.00  0.00    +0.130 C 
ATOM      9  C   LIG    1        2.668  -2.779  -3.148  0.00  0.00    -0.070 C 
ATOM     10  C   LIG    1        3.524  -1.946  -4.105  0.00  0.00    +0.040 C 
ATOM     11  C   LIG    1        1.220  -2.784  -3.643  0.00  0.00    +0.030 C 
ATOM     12  C   LIG    1        0.031  -3.967   0.007  0.00  0.00    +0.260 A 
ATOM     13  C   LIG    1        3.192  -4.201  -3.121  0.00  0.00    +0.280 C 
ATOM     14  O   LIG    1        1.728  -6.134  -4.264  0.00  0.00    -0.510 OA
ENDROOT
BRANCH   6  15
ATOM     15  C   LIG    1        0.315  -0.495  -0.707  0.00  0.00    +0.140 A 
ATOM     16  C   LIG    1       -0.941   0.054  -0.926  0.00  0.00    +0.060 A 
ATOM     17  C   LIG    1       -1.081   1.420  -1.069  0.00  0.00    +0.020 A 
ATOM     18  C   LIG    1        0.030   2.243  -0.995  0.00  0.00    +0.100 A 
ATOM     19  C   LIG    1        1.284   1.697  -0.777  0.00  0.00    +0.020 A 
ATOM     20  F   LIG    1       -0.108   3.579  -1.136  0.00  0.00    -0.130 F 
ATOM     21  C   LIG    1        1.428   0.331  -0.633  0.00  0.00    +0.040 A 
ENDBRANCH   6  15
BRANCH   1  27
ATOM     22  C   LIG    1        3.266  -8.131  -2.276  0.00  0.00    +0.030 C 
ATOM     23  C   LIG    1        1.907  -8.119  -1.573  0.00  0.00    -0.020 C 
ATOM     24  C   LIG    1        1.224  -9.500  -1.692  0.00  0.00    +0.010 C 
ATOM     25  C   LIG    1       -0.080  -9.208  -2.467  0.00  0.00    +0.200 C 
ATOM     26  O   LIG    1        0.189  -7.993  -3.202  0.00  0.00    -0.340 OA
ATOM     27  C   LIG    1        0.935  -7.157  -2.291  0.00  0.00    +0.150 C 
ENDBRANCH   1  27
TORSDOF 2
