REMARK  Name = ZINCrD00000hQ78w.0
REMARK                            x       y       z     vdW  Elec       q    Type
REMARK                         _______ _______ _______ _____ _____    ______ ____
ROOT
ATOM      1  N   LIG    1       -2.563   3.548   0.044  0.00  0.00    -0.460 N 
ATOM      2  C   LIG    1       -1.237   3.167   0.030  0.00  0.00    +0.070 A 
ATOM      3  C   LIG    1       -0.035   3.861   0.022  0.00  0.00    +0.040 A 
ATOM      4  C   LIG    1        1.157   3.164   0.007  0.00  0.00    -0.010 A 
ATOM      5  C   LIG    1        1.160   1.776   0.001  0.00  0.00    +0.020 A 
ATOM      6  C   LIG    1       -0.013   1.076   0.008  0.00  0.00    +0.090 A 
ATOM      7 CL   LIG    1        2.661   4.031  -0.004  0.00  0.00    -0.060 Cl
ATOM      8  C   LIG    1       -1.233   1.760   0.017  0.00  0.00    +0.050 A 
ATOM      9  N   LIG    1       -2.526   1.356   0.034  0.00  0.00    -0.470 NA
ATOM     10  C   LIG    1       -3.313   2.402   0.046  0.00  0.00    +0.330 A 
ENDROOT
BRANCH  10  11
ATOM     11  C   LIG    1       -4.793   2.354   0.060  0.00  0.00    +0.180 A 
ATOM     12  C   LIG    1       -5.444   1.121   0.055  0.00  0.00    +0.030 A 
ATOM     13  C   LIG    1       -6.828   1.092   0.074  0.00  0.00    +0.080 A 
ATOM     14  C   LIG    1       -7.516   2.297   0.087  0.00  0.00    -0.020 A 
ATOM     15  C   LIG    1       -6.805   3.485   0.086  0.00  0.00    +0.270 A 
ATOM     16  N   LIG    1       -5.489   3.485   0.073  0.00  0.00    -0.480 NA
ENDBRANCH  10  11
BRANCH   1  17
ATOM     17  C   LIG    1       -3.073   4.921   0.055  0.00  0.00    +0.300 C 
BRANCH  17  18
ATOM     18  C   LIG    1       -3.265   5.405  -1.384  0.00  0.00    +0.210 C 
BRANCH  18  19
ATOM     19  O   LIG    1       -1.995   5.478  -2.035  0.00  0.00    -0.540 OA
ATOM     20  H   LIG    1       -1.370   6.083  -1.611  0.00  0.00    +0.370 HD
ENDBRANCH  18  19
BRANCH  18  21
ATOM     21  C   LIG    1       -3.914   6.791  -1.374  0.00  0.00    +0.150 C 
BRANCH  21  22
ATOM     22  O   LIG    1       -4.199   7.193  -2.715  0.00  0.00    -0.370 OA
BRANCH  22  23
ATOM     23  C   LIG    1       -4.810   8.480  -2.818  0.00  0.00    +0.150 C 
ATOM     24  C   LIG    1       -6.334   8.330  -2.772  0.00  0.00    -0.030 C 
ATOM     25  C   LIG    1       -6.980   9.704  -2.962  0.00  0.00    +0.210 C 
ATOM     26  O   LIG    1       -6.545  10.267  -4.201  0.00  0.00    -0.380 OA
ATOM     27  C   LIG    1       -5.133  10.475  -4.283  0.00  0.00    +0.210 C 
ATOM     28  C   LIG    1       -4.412   9.132  -4.146  0.00  0.00    +0.010 C 
ENDBRANCH  22  23
ENDBRANCH  21  22
ENDBRANCH  18  21
ENDBRANCH  17  18
ENDBRANCH   1  17
TORSDOF 7
