REMARK  Name = ZINCrg00000yUy6b.0
REMARK                            x       y       z     vdW  Elec       q    Type
REMARK                         _______ _______ _______ _____ _____    ______ ____
ROOT
ATOM      1  C   LIG    1       -5.662   0.462   0.512  0.00  0.00    +0.240 C 
ATOM      2  N   LIG    1       -4.587   0.436  -0.483  0.00  0.00    -1.170 NA
ATOM      3  S   LIG    1       -3.386   1.306  -0.307  0.00  0.00    +2.330 S 
ATOM      4  C   LIG    1       -2.481   0.718   1.159  0.00  0.00    -0.350 C 
ATOM      5  C   LIG    1       -1.077   1.332   1.131  0.00  0.00    +0.050 C 
ATOM      6  C   LIG    1       -0.339   0.884  -0.127  0.00  0.00    +0.030 C 
ATOM      7  C   LIG    1       -0.894   1.577  -1.365  0.00  0.00    +0.170 C 
ATOM      8  C   LIG    1        0.063   1.365  -2.554  0.00  0.00    +0.060 C 
ATOM      9  C   LIG    1        0.012   2.732  -3.288  0.00  0.00    +0.030 C 
ATOM     10  C   LIG    1       -0.125   3.718  -2.101  0.00  0.00    +0.260 C 
ATOM     11  N   LIG    1       -0.994   3.024  -1.133  0.00  0.00    -0.620 N 
ATOM     12  C   LIG    1       -1.754   3.619  -0.191  0.00  0.00    +0.470 C 
ATOM     13  O   LIG    1       -2.364   2.944   0.611  0.00  0.00    -0.460 OA
ATOM     14  O   LIG    1       -3.840   2.649  -0.202  0.00  0.00    -0.930 OA
ATOM     15  C   LIG    1       -2.274   1.015  -1.720  0.00  0.00    -0.220 C 
ENDROOT
BRANCH  12  16
ATOM     16  C   LIG    1       -1.844   5.122  -0.135  0.00  0.00    +0.080 C 
BRANCH  16  17
ATOM     17  C   LIG    1       -2.763   5.535   1.017  0.00  0.00    +0.350 C 
BRANCH  17  18
ATOM     18  N   LIG    1       -2.851   6.996   1.072  0.00  0.00    -0.470 N 
ATOM     19  C   LIG    1       -2.103   7.820   1.858  0.00  0.00    +0.470 A 
ATOM     20  N   LIG    1       -2.440   9.060   1.651  0.00  0.00    -0.460 NA
ATOM     21  C   LIG    1       -3.430   9.109   0.728  0.00  0.00    -0.110 A 
ATOM     22  C   LIG    1       -4.173  10.141   0.130  0.00  0.00    +0.510 A 
ATOM     23  N   LIG    1       -5.099   9.817  -0.767  0.00  0.00    -0.590 NA
ATOM     24  C   LIG    1       -5.323   8.557  -1.095  0.00  0.00    +0.560 A 
ATOM     25  N   LIG    1       -4.652   7.559  -0.561  0.00  0.00    -0.550 NA
ATOM     26  C   LIG    1       -3.706   7.785   0.345  0.00  0.00    +0.300 A 
BRANCH  22  27
ATOM     27  N   LIG    1       -3.946  11.464   0.466  0.00  0.00    -0.820 N 
ATOM     28  H   LIG    1       -3.268  11.688   1.122  0.00  0.00    +0.420 HD
ATOM     29  H   LIG    1       -4.465  12.167   0.046  0.00  0.00    +0.410 HD
ENDBRANCH  22  27
ENDBRANCH  17  18
ENDBRANCH  16  17
ENDBRANCH  12  16
TORSDOF 4
