REMARK  Name = ZINCrH000004mtbn.1
REMARK                            x       y       z     vdW  Elec       q    Type
REMARK                         _______ _______ _______ _____ _____    ______ ____
ROOT
ATOM      1  C   LIG    1        3.129   2.871   1.494  0.00  0.00    +0.560 C 
ATOM      2  N   LIG    1        3.311   1.545   1.336  0.00  0.00    -0.610 N 
ATOM      3  C   LIG    1        4.460   0.863   1.950  0.00  0.00    +0.230 C 
ATOM      4  C   LIG    1        5.173   0.041   0.871  0.00  0.00    +0.210 C 
ATOM      5  N   LIG    1        4.202  -0.845   0.214  0.00  0.00    -0.680 NA
ATOM      6  H   LIG    1        3.794  -1.489   0.875  0.00  0.00    +0.350 HD
ATOM      7  C   LIG    1        3.162  -0.074  -0.480  0.00  0.00    +0.230 C 
ATOM      8  C   LIG    1        2.367   0.743   0.544  0.00  0.00    +0.230 C 
ATOM      9  O   LIG    1        2.115   3.399   1.081  0.00  0.00    -0.500 OA
ENDROOT
BRANCH   8  10
ATOM     10  C   LIG    1        1.405   1.654  -0.173  0.00  0.00    -0.040 A 
ATOM     11  C   LIG    1        1.862   2.498  -1.168  0.00  0.00    +0.030 A 
ATOM     12  C   LIG    1        0.980   3.334  -1.826  0.00  0.00    +0.030 A 
ATOM     13  C   LIG    1       -0.360   3.328  -1.489  0.00  0.00    +0.020 A 
ATOM     14  C   LIG    1       -0.820   2.480  -0.497  0.00  0.00    -0.030 A 
ATOM     15 CL   LIG    1       -2.505   2.466  -0.079  0.00  0.00    -0.080 Cl
ATOM     16  C   LIG    1        0.064   1.647   0.165  0.00  0.00    +0.020 A 
ENDBRANCH   8  10
BRANCH   1  20
ATOM     17  C   LIG    1        6.103   5.204   3.438  0.00  0.00    +0.140 A 
ATOM     18  C   LIG    1        6.476   4.169   2.592  0.00  0.00    -0.030 A 
ATOM     19  C   LIG    1        5.514   3.410   1.960  0.00  0.00    +0.060 A 
ATOM     20  C   LIG    1        4.160   3.682   2.170  0.00  0.00    -0.130 A 
ATOM     21  C   LIG    1        3.784   4.728   3.018  0.00  0.00    +0.050 A 
ATOM     22  C   LIG    1        4.753   5.481   3.652  0.00  0.00    +0.070 A 
BRANCH  17  24
ATOM     23  C   LIG    1        8.417   5.610   3.794  0.00  0.00    +0.250 C 
ATOM     24  O   LIG    1        7.054   5.949   4.058  0.00  0.00    -0.300 OA
ENDBRANCH  17  24
BRANCH  22  25
ATOM     25  O   LIG    1        4.391   6.497   4.480  0.00  0.00    -0.310 OA
BRANCH  25  26
ATOM     26  C   LIG    1        2.990   6.725   4.653  0.00  0.00    +0.600 C 
ATOM     27  F   LIG    1        2.393   5.577   5.183  0.00  0.00    -0.200 F 
ATOM     28  F   LIG    1        2.410   7.024   3.416  0.00  0.00    -0.190 F 
ENDBRANCH  25  26
ENDBRANCH  22  25
ENDBRANCH   1  20
TORSDOF 5
