REMARK  Name = ZINCpk000005ZAIa.0
REMARK                            x       y       z     vdW  Elec       q    Type
REMARK                         _______ _______ _______ _____ _____    ______ ____
ROOT
ATOM      1  C   LIG    1       -2.255  -0.976   0.472  0.00  0.00    +0.530 C 
ATOM      2  N   LIG    1       -2.776   0.155   0.990  0.00  0.00    -0.600 N 
ATOM      3  C   LIG    1       -3.992   0.244   1.823  0.00  0.00    +0.250 C 
ATOM      4  C   LIG    1       -3.819   1.551   2.638  0.00  0.00    +0.030 C 
ATOM      5  C   LIG    1       -3.123   2.478   1.604  0.00  0.00    +0.270 C 
ATOM      6  C   LIG    1       -2.233   1.501   0.822  0.00  0.00    +0.150 C 
ATOM      7  C   LIG    1       -0.777   1.577   1.329  0.00  0.00    +0.030 C 
ATOM      8  C   LIG    1        0.031   1.059   0.111  0.00  0.00    +0.020 C 
ATOM      9  C   LIG    1       -0.718   1.624  -1.115  0.00  0.00    +0.010 C 
ATOM     10  C   LIG    1       -2.164   1.896  -0.659  0.00  0.00    +0.020 C 
ATOM     11  O   LIG    1       -1.326  -0.915  -0.305  0.00  0.00    -0.500 OA
ENDROOT
BRANCH   1  15
ATOM     12  O   LIG    1       -0.044  -4.434   1.328  0.00  0.00    -0.430 OA
ATOM     13  C   LIG    1       -1.149  -3.952   1.401  0.00  0.00    +0.490 C 
ATOM     14  C   LIG    1       -1.998  -3.463   0.242  0.00  0.00    +0.080 C 
ATOM     15  C   LIG    1       -2.828  -2.315   0.860  0.00  0.00    -0.010 C 
ATOM     16  C   LIG    1       -2.679  -2.553   2.377  0.00  0.00    +0.280 C 
ATOM     17  O   LIG    1       -1.859  -3.747   2.526  0.00  0.00    -0.350 OA
ENDBRANCH   1  15
BRANCH   5  18
ATOM     18  N   LIG    1       -4.110   3.104   0.721  0.00  0.00    -0.720 N 
ATOM     19  H   LIG    1       -4.387   2.653  -0.092  0.00  0.00    +0.400 HD
ATOM     20  C   LIG    1       -4.632   4.305   1.038  0.00  0.00    +0.590 C 
ATOM     21  O   LIG    1       -4.284   4.870   2.057  0.00  0.00    -0.530 OA
BRANCH  20  22
ATOM     22  C   LIG    1       -5.625   4.935   0.149  0.00  0.00    -0.240 A 
ATOM     23  C   LIG    1       -6.117   4.436  -1.022  0.00  0.00    +0.230 A 
ATOM     24  O   LIG    1       -6.995   5.314  -1.518  0.00  0.00    -0.170 OA
ATOM     25  C   LIG    1       -7.106   6.385  -0.717  0.00  0.00    +0.180 A 
ATOM     26  C   LIG    1       -6.296   6.229   0.341  0.00  0.00    -0.010 A 
ENDBRANCH  20  22
ENDBRANCH   5  18
TORSDOF 3
