REMARK  Name = ZINCrH000004rqvc.0
REMARK                            x       y       z     vdW  Elec       q    Type
REMARK                         _______ _______ _______ _____ _____    ______ ____
ROOT
ATOM      1  N   LIG    1        2.329   4.391   0.291  0.00  0.00    -0.670 N 
ATOM      2  H   LIG    1        2.134   5.339   0.215  0.00  0.00    +0.410 HD
ATOM      3  C   LIG    1        3.589   3.981   0.536  0.00  0.00    +0.600 C 
ATOM      4  O   LIG    1        3.818   2.803   0.730  0.00  0.00    -0.520 OA
ENDROOT
BRANCH   1   9
ATOM      5  C   LIG    1       -1.855   0.589  -0.278  0.00  0.00    +0.090 C 
ATOM      6  C   LIG    1       -0.744   1.597  -0.131  0.00  0.00    -0.070 A 
ATOM      7  C   LIG    1       -0.994   2.820   0.456  0.00  0.00    +0.040 A 
ATOM      8  C   LIG    1        0.023   3.745   0.598  0.00  0.00    +0.010 A 
ATOM      9  C   LIG    1        1.303   3.452   0.145  0.00  0.00    +0.150 A 
ATOM     10  C   LIG    1        1.564   2.228  -0.452  0.00  0.00    +0.070 A 
ATOM     11  C   LIG    1        0.538   1.294  -0.595  0.00  0.00    -0.000 A 
BRANCH  11  12
ATOM     12  C   LIG    1        0.808  -0.013  -1.230  0.00  0.00    +0.230 A 
ATOM     13  N   LIG    1        1.794  -0.824  -0.925  0.00  0.00    -0.460 NA
ATOM     14  C   LIG    1        1.714  -1.910  -1.708  0.00  0.00    +0.150 A 
ATOM     15  C   LIG    1        0.652  -1.755  -2.520  0.00  0.00    +0.150 A 
ATOM     16  O   LIG    1        0.088  -0.569  -2.219  0.00  0.00    -0.190 OA
ENDBRANCH  11  12
ENDBRANCH   1   9
BRANCH   3  17
ATOM     17  C   LIG    1        4.690   4.961   0.569  0.00  0.00    -0.300 A 
ATOM     18  C   LIG    1        6.023   4.688   0.806  0.00  0.00    +0.170 A 
ATOM     19  N   LIG    1        6.688   5.853   0.748  0.00  0.00    -0.350 N 
ATOM     20  N   LIG    1        5.771   6.874   0.471  0.00  0.00    -0.290 NA
ATOM     21  C   LIG    1        6.621   3.333   1.080  0.00  0.00    +0.160 C 
ATOM     22  C   LIG    1        4.581   6.353   0.358  0.00  0.00    +0.270 A 
BRANCH  19  23
ATOM     23  C   LIG    1        8.130   6.027   0.941  0.00  0.00    +0.270 C 
ATOM     24  C   LIG    1        8.379   6.968   2.124  0.00  0.00    +0.010 C 
ATOM     25  C   LIG    1        9.884   7.207   2.268  0.00  0.00    +0.220 C 
ATOM     26  O   LIG    1       10.400   7.744   1.048  0.00  0.00    -0.380 OA
ATOM     27  C   LIG    1       10.238   6.886  -0.083  0.00  0.00    +0.220 C 
ATOM     28  C   LIG    1        8.746   6.635  -0.322  0.00  0.00    +0.010 C 
ENDBRANCH  19  23
ENDBRANCH   3  17
TORSDOF 4
