REMARK  Name = ZINCvU000000054e.0
REMARK                            x       y       z     vdW  Elec       q    Type
REMARK                         _______ _______ _______ _____ _____    ______ ____
ROOT
ATOM      1  C   LIG    1       -7.405  -0.297   0.170  0.00  0.00    +0.260 A 
ATOM      2  C   LIG    1       -6.212  -1.004   0.101  0.00  0.00    -0.040 A 
ATOM      3  C   LIG    1       -5.008  -0.340   0.223  0.00  0.00    +0.120 A 
ATOM      4  C   LIG    1       -4.990   1.035   0.416  0.00  0.00    +0.090 A 
ATOM      5  C   LIG    1       -6.183   1.742   0.491  0.00  0.00    +0.090 A 
ATOM      6  C   LIG    1       -7.387   1.079   0.362  0.00  0.00    -0.240 A 
ENDROOT
BRANCH   4   7
ATOM      7  N   LIG    1       -3.768   1.709   0.540  0.00  0.00    -0.670 N 
ATOM      8  H   LIG    1       -3.690   2.465   1.143  0.00  0.00    +0.410 HD
ATOM      9  C   LIG    1       -2.700   1.306  -0.177  0.00  0.00    +0.560 C 
ATOM     10  O   LIG    1       -2.773   0.308  -0.867  0.00  0.00    -0.520 OA
BRANCH   9  11
ATOM     11  C   LIG    1       -1.440   2.078  -0.123  0.00  0.00    -0.140 A 
ATOM     12  C   LIG    1       -0.333   1.663  -0.865  0.00  0.00    +0.080 A 
ATOM     13  C   LIG    1        0.838   2.391  -0.815  0.00  0.00    +0.000 A 
ATOM     14  C   LIG    1        0.918   3.526  -0.028  0.00  0.00    +0.040 A 
ATOM     15  C   LIG    1       -0.175   3.939   0.714  0.00  0.00    +0.000 A 
ATOM     16  C   LIG    1       -1.352   3.221   0.673  0.00  0.00    +0.040 A 
ENDBRANCH   9  11
ENDBRANCH   4   7
BRANCH   6  17
ATOM     17  C   LIG    1       -8.682   1.846   0.437  0.00  0.00    +0.510 C 
ATOM     18  F   LIG    1       -9.447   1.366   1.505  0.00  0.00    -0.180 F 
ATOM     19  F   LIG    1       -9.391   1.681  -0.757  0.00  0.00    -0.180 F 
ATOM     20  F   LIG    1       -8.408   3.204   0.633  0.00  0.00    -0.180 F 
ENDBRANCH   6  17
BRANCH   1  21
ATOM     21  N   LIG    1       -8.625  -0.970   0.045  0.00  0.00    -0.730 N 
ATOM     22  H   LIG    1       -9.459  -0.476   0.094  0.00  0.00    +0.410 HD
BRANCH  21  23
ATOM     23  C   LIG    1       -8.645  -2.420  -0.158  0.00  0.00    +0.310 C 
BRANCH  23  25
ATOM     24  O   LIG    1      -10.983  -2.099  -0.171  0.00  0.00    -0.500 OA
ATOM     25  C   LIG    1      -10.072  -2.895  -0.260  0.00  0.00    +0.510 C 
ATOM     26  N   LIG    1      -10.335  -4.203  -0.449  0.00  0.00    -0.670 N 
ATOM     27  H   LIG    1       -9.611  -4.849  -0.446  0.00  0.00    +0.420 HD
BRANCH  26  28
ATOM     28  C   LIG    1      -11.652  -4.629  -0.650  0.00  0.00    +0.170 A 
ATOM     29  C   LIG    1      -12.061  -5.871  -0.181  0.00  0.00    -0.010 A 
ATOM     30  C   LIG    1      -13.364  -6.287  -0.375  0.00  0.00    +0.070 A 
ATOM     31  C   LIG    1      -14.258  -5.475  -1.046  0.00  0.00    -0.030 A 
ATOM     32  C   LIG    1      -13.854  -4.238  -1.520  0.00  0.00    +0.120 A 
ATOM     33  F   LIG    1      -14.731  -3.446  -2.175  0.00  0.00    -0.130 F 
ATOM     34  C   LIG    1      -12.552  -3.813  -1.323  0.00  0.00    -0.010 A 
ENDBRANCH  26  28
ENDBRANCH  23  25
ENDBRANCH  21  23
ENDBRANCH   1  21
TORSDOF 7
