REMARK  Name = ZINCrg000000tOgj.0
REMARK                            x       y       z     vdW  Elec       q    Type
REMARK                         _______ _______ _______ _____ _____    ______ ____
ROOT
ATOM      1  C   LIG    1       -1.521  -1.407   1.061  0.00  0.00    -0.150 A 
ATOM      2  C   LIG    1       -2.754  -0.754   0.962  0.00  0.00    +0.090 A 
ATOM      3  C   LIG    1       -3.571  -1.050  -0.115  0.00  0.00    -0.030 A 
ATOM      4  C   LIG    1       -3.156  -1.982  -1.048  0.00  0.00    +0.290 A 
ATOM      5  N   LIG    1       -1.992  -2.592  -0.935  0.00  0.00    -0.510 NA
ATOM      6  C   LIG    1       -1.169  -2.342   0.072  0.00  0.00    +0.340 A 
ENDROOT
BRANCH   1   8
ATOM      7  O   LIG    1        0.543  -0.802   1.967  0.00  0.00    -0.510 OA
ATOM      8  C   LIG    1       -0.609  -1.125   2.185  0.00  0.00    +0.580 C 
ATOM      9  N   LIG    1       -1.053  -1.224   3.454  0.00  0.00    -0.610 N 
ATOM     10  C   LIG    1       -2.465  -1.523   3.732  0.00  0.00    +0.260 C 
ATOM     11  C   LIG    1       -2.531  -2.740   4.667  0.00  0.00    +0.020 C 
ATOM     12  C   LIG    1       -1.690  -2.463   5.915  0.00  0.00    +0.020 C 
ATOM     13  C   LIG    1       -0.230  -2.246   5.511  0.00  0.00    +0.020 C 
ATOM     14  C   LIG    1       -0.136  -1.029   4.585  0.00  0.00    +0.270 C 
ENDBRANCH   1   8
BRANCH   6  15
ATOM     15  N   LIG    1        0.042  -3.004   0.151  0.00  0.00    -0.480 N 
ATOM     16  C   LIG    1        0.945  -2.582  -0.930  0.00  0.00    +0.220 C 
ATOM     17  C   LIG    1        2.298  -3.276  -0.760  0.00  0.00    +0.190 C 
ATOM     18  N   LIG    1        2.104  -4.733  -0.779  0.00  0.00    -0.520 NA
ATOM     19  C   LIG    1        1.202  -5.155   0.302  0.00  0.00    +0.190 C 
ATOM     20  C   LIG    1       -0.152  -4.460   0.133  0.00  0.00    +0.200 C 
BRANCH  18  21
ATOM     21  C   LIG    1        3.391  -5.437  -0.695  0.00  0.00    +0.200 C 
ATOM     22  C   LIG    1        4.150  -4.997   0.570  0.00  0.00    +0.030 C 
ATOM     23  C   LIG    1        5.612  -5.475   0.459  0.00  0.00    -0.310 C 
ATOM     24  S   LIG    1        5.955  -5.549  -1.336  0.00  0.00    +2.390 S 
ATOM     25  O   LIG    1        6.888  -4.533  -1.680  0.00  0.00    -0.930 OA
ATOM     26  O   LIG    1        6.203  -6.897  -1.713  0.00  0.00    -0.930 OA
ATOM     27  C   LIG    1        4.284  -5.057  -1.904  0.00  0.00    -0.300 C 
ENDBRANCH  18  21
ENDBRANCH   6  15
TORSDOF 3
