REMARK  Name = ZINCrH00000No4Je.0
REMARK                            x       y       z     vdW  Elec       q    Type
REMARK                         _______ _______ _______ _____ _____    ______ ____
ROOT
ATOM      1  C   LIG    1        3.716   2.572  -1.778  0.00  0.00    +0.170 A 
ATOM      2  C   LIG    1        4.205   3.427  -0.799  0.00  0.00    +0.050 A 
ATOM      3  C   LIG    1        4.513   4.735  -1.117  0.00  0.00    +0.000 A 
ATOM      4  C   LIG    1        4.333   5.196  -2.412  0.00  0.00    +0.120 A 
ATOM      5  C   LIG    1        3.845   4.342  -3.391  0.00  0.00    +0.070 A 
ATOM      6  C   LIG    1        3.542   3.032  -3.077  0.00  0.00    -0.170 A 
ENDROOT
BRANCH   6   7
ATOM      7  C   LIG    1        3.017   2.104  -4.141  0.00  0.00    +0.510 C 
ATOM      8  F   LIG    1        1.749   1.642  -3.774  0.00  0.00    -0.170 F 
ATOM      9  F   LIG    1        3.887   1.016  -4.282  0.00  0.00    -0.170 F 
ATOM     10  F   LIG    1        2.929   2.790  -5.357  0.00  0.00    -0.170 F 
ENDBRANCH   6   7
BRANCH   1  11
ATOM     11  N   LIG    1        3.405   1.246  -1.457  0.00  0.00    -1.060 N 
ATOM     12  H   LIG    1        3.562   0.540  -2.104  0.00  0.00    +0.430 HD
BRANCH  11  13
ATOM     13  S   LIG    1        2.766   0.881   0.026  0.00  0.00    +2.680 S 
ATOM     14  O   LIG    1        2.427  -0.499  -0.011  0.00  0.00    -0.950 OA
ATOM     15  O   LIG    1        3.647   1.440   0.991  0.00  0.00    -0.940 OA
BRANCH  13  17
ATOM     16  C   LIG    1        0.101   1.099   0.251  0.00  0.00    +0.230 C 
ATOM     17  C   LIG    1        1.247   1.762   0.171  0.00  0.00    -0.590 C 
BRANCH  16  22
ATOM     18  C   LIG    1       -4.862   3.977   0.700  0.00  0.00    +0.100 C 
ATOM     19  C   LIG    1       -3.562   3.223   0.582  0.00  0.00    -0.060 A 
ATOM     20  C   LIG    1       -3.568   1.840   0.553  0.00  0.00    +0.000 A 
ATOM     21  C   LIG    1       -2.381   1.144   0.445  0.00  0.00    +0.050 A 
ATOM     22  C   LIG    1       -1.174   1.839   0.366  0.00  0.00    -0.110 A 
ATOM     23  C   LIG    1       -1.174   3.233   0.403  0.00  0.00    +0.050 A 
ATOM     24  C   LIG    1       -2.368   3.917   0.504  0.00  0.00    +0.000 A 
ENDBRANCH  16  22
ENDBRANCH  13  17
ENDBRANCH  11  13
ENDBRANCH   1  11
BRANCH   4  25
ATOM     25  O   LIG    1        4.636   6.484  -2.724  0.00  0.00    -0.300 OA
BRANCH  25  26
ATOM     26  C   LIG    1        5.135   7.307  -1.667  0.00  0.00    +0.200 C 
BRANCH  26  27
ATOM     27  C   LIG    1        5.417   8.712  -2.205  0.00  0.00    +0.210 C 
BRANCH  27  28
ATOM     28  O   LIG    1        4.190   9.321  -2.612  0.00  0.00    -0.570 OA
ATOM     29  H   LIG    1        4.293  10.216  -2.964  0.00  0.00    +0.380 HD
ENDBRANCH  27  28
ENDBRANCH  26  27
ENDBRANCH  25  26
ENDBRANCH   4  25
TORSDOF 9
