REMARK  Name = ZINCkj00000a7StN.0
REMARK                            x       y       z     vdW  Elec       q    Type
REMARK                         _______ _______ _______ _____ _____    ______ ____
ROOT
ATOM      1  O   LIG    1       -4.885   1.635  -0.278  0.00  0.00    -0.500 OA
ATOM      2  C   LIG    1       -4.484   0.987  -1.226  0.00  0.00    +0.580 C 
ATOM      3  N   LIG    1       -3.164   0.926  -1.490  0.00  0.00    -0.720 N 
ATOM      4  H   LIG    1       -2.838   0.351  -2.200  0.00  0.00    +0.400 HD
ENDROOT
BRANCH   3   5
ATOM      5  C   LIG    1       -2.222   1.727  -0.706  0.00  0.00    +0.170 C 
ATOM      6  C   LIG    1       -2.505   3.237  -0.838  0.00  0.00    +0.060 C 
ATOM      7  C   LIG    1       -1.484   3.728  -1.893  0.00  0.00    +0.050 C 
ATOM      8  C   LIG    1       -0.217   2.905  -1.551  0.00  0.00    +0.060 C 
ATOM      9  C   LIG    1       -2.228   1.352   0.794  0.00  0.00    +0.080 C 
ATOM     10  C   LIG    1       -0.740   1.506   1.200  0.00  0.00    +0.280 C 
ATOM     11  N   LIG    1       -0.011   1.010   0.005  0.00  0.00    -0.510 N 
ATOM     12  H   LIG    1        0.931   1.372  -0.003  0.00  0.00    +0.430 HD
ATOM     13  H   LIG    1        0.004   0.001  -0.000  0.00  0.00    +0.430 HD
ATOM     14  C   LIG    1       -0.760   1.514  -1.165  0.00  0.00    +0.170 C 
ENDBRANCH   3   5
BRANCH   2  15
ATOM     15  C   LIG    1       -5.441   0.270  -2.085  0.00  0.00    -0.150 A 
ATOM     16  C   LIG    1       -4.999  -0.559  -3.109  0.00  0.00    +0.120 A 
ATOM     17  C   LIG    1       -5.939  -1.223  -3.902  0.00  0.00    -0.040 A 
ATOM     18  C   LIG    1       -7.265  -1.073  -3.692  0.00  0.00    +0.350 A 
ATOM     19  N   LIG    1       -7.748  -0.272  -2.702  0.00  0.00    -0.290 N 
ATOM     20  N   LIG    1       -9.050   0.043  -2.291  0.00  0.00    -0.300 NA
ATOM     21  C   LIG    1       -8.985   0.874  -1.275  0.00  0.00    +0.290 A 
ATOM     22  C   LIG    1       -7.651   1.131  -0.987  0.00  0.00    -0.080 A 
ATOM     23  C   LIG    1       -6.885   0.406  -1.880  0.00  0.00    +0.120 A 
ENDBRANCH   2  15
TORSDOF 2
