REMARK  Name = ZINCvU0000000AeY.0
REMARK                            x       y       z     vdW  Elec       q    Type
REMARK                         _______ _______ _______ _____ _____    ______ ____
ROOT
ATOM      1  C   LIG    1        5.196   4.700  -0.241  0.00  0.00    -0.320 A 
ATOM      2  C   LIG    1        5.341   3.328  -0.246  0.00  0.00    +0.160 A 
ATOM      3  S   LIG    1        3.844   2.561  -0.523  0.00  0.00    +0.290 S 
ATOM      4  C   LIG    1        3.002   4.098  -0.637  0.00  0.00    -0.460 A 
ATOM      5  C   LIG    1        3.889   5.130  -0.465  0.00  0.00    +0.370 A 
ENDROOT
BRANCH   1   8
ATOM      6  N   LIG    1        6.630   6.019   1.222  0.00  0.00    -0.660 N 
ATOM      7  H   LIG    1        6.160   5.645   1.984  0.00  0.00    +0.410 HD
ATOM      8  C   LIG    1        6.316   5.621  -0.026  0.00  0.00    +0.590 C 
ATOM      9  O   LIG    1        6.961   6.026  -0.976  0.00  0.00    -0.510 OA
BRANCH   6  13
ATOM     10  C   LIG    1        9.623   8.862   1.812  0.00  0.00    +0.120 A 
ATOM     11  C   LIG    1        8.510   8.845   2.640  0.00  0.00    +0.010 A 
ATOM     12  C   LIG    1        7.519   7.904   2.445  0.00  0.00    +0.030 A 
ATOM     13  C   LIG    1        7.635   6.975   1.420  0.00  0.00    +0.100 A 
ATOM     14  C   LIG    1        8.752   6.989   0.594  0.00  0.00    +0.060 A 
ATOM     15  C   LIG    1        9.740   7.934   0.787  0.00  0.00    -0.060 A 
BRANCH  10  17
ATOM     16  C   LIG    1       11.716   9.749   1.114  0.00  0.00    +0.250 C 
ATOM     17  O   LIG    1       10.599   9.789   2.004  0.00  0.00    -0.320 OA
ENDBRANCH  10  17
ENDBRANCH   6  13
ENDBRANCH   1   8
BRANCH   5  18
ATOM     18  N   LIG    1        3.522   6.467  -0.506  0.00  0.00    -0.820 N 
ATOM     19  H   LIG    1        4.190   7.158  -0.379  0.00  0.00    +0.400 HD
ATOM     20  H   LIG    1        2.596   6.711  -0.662  0.00  0.00    +0.420 HD
ENDBRANCH   5  18
BRANCH   4  21
ATOM     21  C   LIG    1        1.618   4.248  -0.875  0.00  0.00    +0.520 C 
ATOM     22  O   LIG    1        1.128   5.364  -0.937  0.00  0.00    -0.480 OA
BRANCH  21  23
ATOM     23  C   LIG    1        0.769   3.062  -1.049  0.00  0.00    -0.100 A 
ATOM     24  C   LIG    1       -0.575   3.065  -1.284  0.00  0.00    +0.040 A 
ATOM     25  C   LIG    1       -0.971   1.721  -1.386  0.00  0.00    -0.070 A 
ATOM     26  C   LIG    1        0.135   0.967  -1.204  0.00  0.00    +0.210 A 
ATOM     27  O   LIG    1        1.182   1.778  -1.004  0.00  0.00    -0.160 OA
ENDBRANCH  21  23
ENDBRANCH   4  21
BRANCH   2  28
ATOM     28  N   LIG    1        6.532   2.668  -0.053  0.00  0.00    -0.630 N 
ATOM     29  H   LIG    1        7.359   3.170   0.015  0.00  0.00    +0.420 HD
BRANCH  28  30
ATOM     30  C   LIG    1        6.551   1.274   0.047  0.00  0.00    +0.140 A 
ATOM     31  C   LIG    1        5.505   0.607   0.673  0.00  0.00    -0.020 A 
ATOM     32  C   LIG    1        5.525  -0.771   0.765  0.00  0.00    +0.050 A 
ATOM     33  C   LIG    1        6.588  -1.486   0.245  0.00  0.00    +0.000 A 
ATOM     34  C   LIG    1        7.633  -0.824  -0.374  0.00  0.00    +0.040 A 
ATOM     35  C   LIG    1        7.617   0.553  -0.475  0.00  0.00    -0.010 A 
ENDBRANCH  28  30
ENDBRANCH   2  28
TORSDOF 8
