REMARK  Name = ZINCrH000004v8G5.0
REMARK                            x       y       z     vdW  Elec       q    Type
REMARK                         _______ _______ _______ _____ _____    ______ ____
ROOT
ATOM      1  C   LIG    1       -0.014   1.394   0.004  0.00  0.00    +0.200 A 
ATOM      2  C   LIG    1       -1.210   2.076   0.188  0.00  0.00    -0.030 A 
ATOM      3  C   LIG    1       -1.222   3.457   0.195  0.00  0.00    +0.140 A 
ATOM      4  C   LIG    1       -0.047   4.161   0.009  0.00  0.00    -0.690 A 
ATOM      5  C   LIG    1        1.145   3.485  -0.180  0.00  0.00    +0.140 A 
ATOM      6  C   LIG    1        1.165   2.104  -0.183  0.00  0.00    +0.000 A 
ENDROOT
BRANCH   1   9
ATOM      7  O   LIG    1        1.984  -0.052   1.004  0.00  0.00    -0.500 OA
ATOM      8  C   LIG    1        1.074  -0.666   0.481  0.00  0.00    +0.570 C 
ATOM      9  N   LIG    1        0.002  -0.004   0.002  0.00  0.00    -0.670 N 
ATOM     10  H   LIG    1       -0.758  -0.497  -0.345  0.00  0.00    +0.420 HD
BRANCH   8  11
ATOM     11  C   LIG    1        1.142  -2.136   0.373  0.00  0.00    -0.130 A 
ATOM     12  C   LIG    1        0.094  -2.847  -0.228  0.00  0.00    +0.060 A 
ATOM     13  C   LIG    1        0.146  -4.199  -0.334  0.00  0.00    +0.080 A 
ATOM     14  C   LIG    1        1.258  -4.917   0.161  0.00  0.00    +0.110 A 
ATOM     15  N   LIG    1        1.494  -6.240   0.151  0.00  0.00    -0.470 NA
ATOM     16  C   LIG    1        2.589  -6.657   0.667  0.00  0.00    +0.290 A 
ATOM     17  S   LIG    1        3.529  -5.367   1.270  0.00  0.00    +0.130 S 
ATOM     18  C   LIG    1        2.306  -4.206   0.762  0.00  0.00    -0.200 A 
ATOM     19  C   LIG    1        2.250  -2.822   0.862  0.00  0.00    +0.160 A 
ENDBRANCH   8  11
ENDBRANCH   1   9
BRANCH   4  20
ATOM     20  S   LIG    1       -0.068   5.923   0.012  0.00  0.00    +2.690 S 
ATOM     21  O   LIG    1        1.247   6.339   0.355  0.00  0.00    -0.950 OA
ATOM     22  O   LIG    1       -1.222   6.309   0.746  0.00  0.00    -0.950 OA
BRANCH  20  23
ATOM     23  N   LIG    1       -0.321   6.413  -1.549  0.00  0.00    -1.000 NA
ATOM     24  C   LIG    1        0.814   6.656  -2.451  0.00  0.00    +0.290 C 
ATOM     25  C   LIG    1        0.607   5.829  -3.729  0.00  0.00    +0.010 C 
ATOM     26  C   LIG    1       -0.758   6.166  -4.333  0.00  0.00    +0.010 C 
ATOM     27  C   LIG    1       -1.862   5.799  -3.339  0.00  0.00    +0.010 C 
ATOM     28  C   LIG    1       -1.684   6.620  -2.058  0.00  0.00    +0.290 C 
ENDBRANCH  20  23
ENDBRANCH   4  20
TORSDOF 4
