REMARK  Name = ZINCpk00000FbikD.1
REMARK                            x       y       z     vdW  Elec       q    Type
REMARK                         _______ _______ _______ _____ _____    ______ ____
ROOT
ATOM      1  C   LIG    1       -8.135   1.879   0.499  0.00  0.00    +0.280 C 
ATOM      2  C   LIG    1       -7.042   1.841  -0.576  0.00  0.00    +0.290 C 
ATOM      3  N   LIG    1       -5.734   1.778   0.094  0.00  0.00    -0.610 N 
ATOM      4  C   LIG    1       -5.537   0.753   1.131  0.00  0.00    +0.250 C 
ATOM      5  C   LIG    1       -6.705   0.848   2.127  0.00  0.00    +0.230 C 
ATOM      6  C   LIG    1       -4.744   2.631  -0.236  0.00  0.00    +0.520 C 
ATOM      7  O   LIG    1       -4.924   3.466  -1.097  0.00  0.00    -0.500 OA
ATOM      8  O   LIG    1       -7.939   0.793   1.408  0.00  0.00    -0.360 OA
ENDROOT
BRANCH   6   9
ATOM      9  C   LIG    1       -3.412   2.546   0.465  0.00  0.00    +0.190 C 
ATOM     10  C   LIG    1       -2.651   1.264   0.052  0.00  0.00    +0.110 C 
ATOM     11  C   LIG    1       -1.214   1.748   0.017  0.00  0.00    -0.150 A 
ATOM     12  C   LIG    1       -0.013   1.076   0.008  0.00  0.00    +0.040 A 
ATOM     13  C   LIG    1        1.178   1.785   0.000  0.00  0.00    +0.070 A 
ATOM     14  C   LIG    1        1.151   3.170   0.007  0.00  0.00    +0.040 A 
ATOM     15  C   LIG    1       -0.052   3.843   0.018  0.00  0.00    +0.040 A 
ATOM     16  F   LIG    1        2.359   1.129  -0.013  0.00  0.00    -0.130 F 
ATOM     17  C   LIG    1       -1.252   3.137   0.022  0.00  0.00    +0.100 A 
ATOM     18  O   LIG    1       -2.535   3.595   0.020  0.00  0.00    -0.270 OA
ENDBRANCH   6   9
BRANCH   1  21
ATOM     19  C   LIG    1      -11.432   2.292  -0.926  0.00  0.00    +0.290 A 
ATOM     20  N   LIG    1      -10.361   2.743  -0.324  0.00  0.00    -0.530 NA
ATOM     21  C   LIG    1       -9.487   1.752  -0.154  0.00  0.00    +0.230 A 
ATOM     22  N   LIG    1       -9.996   0.650  -0.639  0.00  0.00    -0.280 NA
ATOM     23  N   LIG    1      -11.263   0.977  -1.148  0.00  0.00    -0.480 N 
ATOM     24  H   LIG    1      -11.892   0.374  -1.575  0.00  0.00    +0.440 HD
BRANCH  19  26
ATOM     25  C   LIG    1      -13.698   2.984  -0.196  0.00  0.00    +0.050 C 
ATOM     26  C   LIG    1      -12.646   3.104  -1.299  0.00  0.00    +0.150 C 
ENDBRANCH  19  26
ENDBRANCH   1  21
TORSDOF 3
