REMARK  Name = ZINCpk00000FbikD.0
REMARK                            x       y       z     vdW  Elec       q    Type
REMARK                         _______ _______ _______ _____ _____    ______ ____
ROOT
ATOM      1  C   LIG    1       -1.200  -0.914   0.008  0.00  0.00    +0.270 C 
ATOM      2  C   LIG    1       -2.094  -0.573   1.205  0.00  0.00    +0.300 C 
ATOM      3  N   LIG    1       -3.154  -1.589   1.297  0.00  0.00    -0.610 N 
ATOM      4  C   LIG    1       -2.758  -3.006   1.272  0.00  0.00    +0.250 C 
ATOM      5  C   LIG    1       -1.832  -3.228   0.071  0.00  0.00    +0.240 C 
ATOM      6  C   LIG    1       -4.450  -1.232   1.400  0.00  0.00    +0.520 C 
ATOM      7  O   LIG    1       -4.756  -0.059   1.419  0.00  0.00    -0.500 OA
ATOM      8  O   LIG    1       -0.769  -2.273   0.114  0.00  0.00    -0.380 OA
ENDROOT
BRANCH   6   9
ATOM      9  C   LIG    1       -5.518  -2.292   1.493  0.00  0.00    +0.190 C 
ATOM     10  C   LIG    1       -5.371  -3.105   2.801  0.00  0.00    +0.110 C 
ATOM     11  C   LIG    1       -6.819  -3.360   3.175  0.00  0.00    -0.150 A 
ATOM     12  C   LIG    1       -7.403  -4.240   4.059  0.00  0.00    +0.040 A 
ATOM     13  C   LIG    1       -8.781  -4.266   4.199  0.00  0.00    +0.070 A 
ATOM     14  C   LIG    1       -9.564  -3.406   3.449  0.00  0.00    +0.040 A 
ATOM     15  C   LIG    1       -8.978  -2.522   2.566  0.00  0.00    +0.040 A 
ATOM     16  F   LIG    1       -9.359  -5.128   5.064  0.00  0.00    -0.130 F 
ATOM     17  C   LIG    1       -7.594  -2.487   2.422  0.00  0.00    +0.100 A 
ATOM     18  O   LIG    1       -6.817  -1.693   1.634  0.00  0.00    -0.270 OA
ENDBRANCH   6   9
BRANCH   1  22
ATOM     19  C   LIG    1        2.030   0.752  -0.013  0.00  0.00    +0.190 A 
ATOM     20  N   LIG    1        1.189   1.750   0.000  0.00  0.00    -0.280 NA
ATOM     21  N   LIG    1       -0.016   1.301   0.009  0.00  0.00    -0.270 NA
ATOM     22  C   LIG    1        0.002  -0.004   0.002  0.00  0.00    +0.180 A 
ATOM     23  N   LIG    1        1.301  -0.390  -0.013  0.00  0.00    -0.560 N 
ATOM     24  H   LIG    1        1.640  -1.298  -0.020  0.00  0.00    +0.430 HD
BRANCH  19  26
ATOM     25  C   LIG    1        3.977   1.718  -1.209  0.00  0.00    +0.050 C 
ATOM     26  C   LIG    1        3.534   0.852  -0.028  0.00  0.00    +0.140 C 
ENDBRANCH  19  26
ENDBRANCH   1  22
TORSDOF 3
