REMARK  Name = ZINCrH00000tj1ll.0
REMARK                            x       y       z     vdW  Elec       q    Type
REMARK                         _______ _______ _______ _____ _____    ______ ____
ROOT
ATOM      1  N   LIG    1        1.155  -3.935  -0.234  0.00  0.00    -0.300 N 
ATOM      2  N   LIG    1        2.547  -3.792  -0.194  0.00  0.00    -0.240 NA
ATOM      3  C   LIG    1        2.852  -2.524  -0.122  0.00  0.00    +0.330 A 
ATOM      4  C   LIG    1        1.661  -1.779  -0.112  0.00  0.00    -0.190 A 
ATOM      5  C   LIG    1        1.336  -0.354  -0.047  0.00  0.00    +0.270 A 
ATOM      6  N   LIG    1        2.031   0.759   0.026  0.00  0.00    -0.270 NA
ATOM      7  N   LIG    1        1.236   1.770   0.060  0.00  0.00    -0.230 NA
ATOM      8  C   LIG    1       -0.017   1.366   0.010  0.00  0.00    +0.230 A 
ATOM      9  N   LIG    1        0.003  -0.002  -0.061  0.00  0.00    -0.450 N 
ATOM     10  C   LIG    1       -0.953  -0.968  -0.132  0.00  0.00    +0.620 A 
ATOM     11  N   LIG    1       -0.666  -2.235  -0.190  0.00  0.00    -0.480 NA
ATOM     12  C   LIG    1        0.597  -2.690  -0.184  0.00  0.00    +0.300 A 
ENDROOT
BRANCH   1  17
ATOM     13  C   LIG    1       -1.676  -8.843  -0.550  0.00  0.00    +0.120 C 
ATOM     14  C   LIG    1       -0.925  -7.540  -0.466  0.00  0.00    -0.070 A 
ATOM     15  C   LIG    1        0.285  -7.398  -1.119  0.00  0.00    +0.060 A 
ATOM     16  C   LIG    1        0.977  -6.204  -1.044  0.00  0.00    +0.050 A 
ATOM     17  C   LIG    1        0.455  -5.146  -0.312  0.00  0.00    +0.150 A 
ATOM     18  C   LIG    1       -0.758  -5.292   0.347  0.00  0.00    +0.050 A 
ATOM     19  C   LIG    1       -1.448  -6.487   0.265  0.00  0.00    -0.020 A 
ATOM     20 CL   LIG    1       -2.967  -6.670   1.084  0.00  0.00    -0.050 Cl
ENDBRANCH   1  17
BRANCH   8  21
ATOM     21  C   LIG    1       -1.217   2.226   0.020  0.00  0.00    -0.060 A 
ATOM     22  C   LIG    1       -2.241   2.013  -0.904  0.00  0.00    +0.050 A 
ATOM     23  C   LIG    1       -3.362   2.817  -0.886  0.00  0.00    +0.020 A 
ATOM     24  C   LIG    1       -3.471   3.842   0.038  0.00  0.00    +0.060 A 
ATOM     25  C   LIG    1       -2.461   4.066   0.956  0.00  0.00    +0.000 A 
ATOM     26  C   LIG    1       -1.331   3.264   0.954  0.00  0.00    +0.160 A 
BRANCH  26  27
ATOM     27  O   LIG    1       -0.338   3.484   1.854  0.00  0.00    -0.490 OA
ATOM     28  H   LIG    1        0.341   4.100   1.548  0.00  0.00    +0.400 HD
ENDBRANCH  26  27
ENDBRANCH   8  21
TORSDOF 3
