REMARK  Name = ZINCqH0000007p36.1
REMARK                            x       y       z     vdW  Elec       q    Type
REMARK                         _______ _______ _______ _____ _____    ______ ____
ROOT
ATOM      1  C   LIG    1        2.452   3.935  -0.000  0.00  0.00    +0.230 C 
ENDROOT
BRANCH   1   5
ATOM      2  C   LIG    1       -1.200   1.718   0.088  0.00  0.00    +0.160 A 
ATOM      3  C   LIG    1       -1.025   2.731  -0.844  0.00  0.00    +0.010 A 
ATOM      4  C   LIG    1        0.156   3.447  -0.869  0.00  0.00    +0.080 A 
ATOM      5  C   LIG    1        1.164   3.152   0.030  0.00  0.00    -0.180 A 
ATOM      6  C   LIG    1        0.994   2.140   0.956  0.00  0.00    +0.090 A 
ATOM      7  C   LIG    1       -0.185   1.420   0.985  0.00  0.00    -0.070 A 
BRANCH   2   9
ATOM      8  C   LIG    1       -2.474  -0.013   1.105  0.00  0.00    +0.250 C 
ATOM      9  O   LIG    1       -2.363   1.015   0.118  0.00  0.00    -0.310 OA
ENDBRANCH   2   9
ENDBRANCH   1   5
BRANCH   1  10
ATOM     10  N   LIG    1        2.301   5.157   0.802  0.00  0.00    -0.390 N 
ATOM     11  C   LIG    1        1.096   5.909   0.367  0.00  0.00    +0.260 C 
ATOM     12  C   LIG    1        0.763   6.788   1.599  0.00  0.00    +0.070 C 
ATOM     13  C   LIG    1        1.091   5.855   2.788  0.00  0.00    +0.060 C 
ATOM     14  C   LIG    1        2.070   4.810   2.221  0.00  0.00    +0.240 C 
ATOM     15  H   LIG    1        3.123   5.734   0.714  0.00  0.00    +0.420 HD
ENDBRANCH   1  10
BRANCH   1  16
ATOM     16  C   LIG    1        2.786   4.312  -1.445  0.00  0.00    +0.310 C 
BRANCH  16  17
ATOM     17  N   LIG    1        3.971   5.173  -1.464  0.00  0.00    -0.770 N 
ATOM     18  H   LIG    1        4.409   5.413  -0.632  0.00  0.00    +0.380 HD
ATOM     19  C   LIG    1        4.453   5.631  -2.636  0.00  0.00    +0.570 C 
ATOM     20  O   LIG    1        3.904   5.330  -3.678  0.00  0.00    -0.500 OA
BRANCH  19  21
ATOM     21  C   LIG    1        5.646   6.498  -2.655  0.00  0.00    -0.310 A 
ATOM     22  C   LIG    1        6.277   6.851  -1.459  0.00  0.00    +0.090 A 
ATOM     23  C   LIG    1        7.395   7.657  -1.484  0.00  0.00    -0.220 A 
ATOM     24  C   LIG    1        7.890   8.129  -2.690  0.00  0.00    +0.080 A 
ATOM     25  C   LIG    1        7.273   7.791  -3.878  0.00  0.00    -0.130 A 
ATOM     26 BR   LIG    1        8.252   8.129   0.134  0.00  0.00    -0.100 Br
ATOM     27  C   LIG    1        6.151   6.977  -3.872  0.00  0.00    +0.320 A 
ATOM     28  O   LIG    1        5.543   6.645  -5.038  0.00  0.00    -0.650 OA
ENDBRANCH  19  21
ENDBRANCH  16  17
ENDBRANCH   1  16
TORSDOF 6
