REMARK  Name = ZINCrH000004m8nR.0
REMARK                            x       y       z     vdW  Elec       q    Type
REMARK                         _______ _______ _______ _____ _____    ______ ____
ROOT
ATOM      1  C   LIG    1        4.867   0.130  -1.129  0.00  0.00    +0.300 C 
ENDROOT
BRANCH   1   4
ATOM      2  N   LIG    1        6.552  -1.509  -1.903  0.00  0.00    -0.660 N 
ATOM      3  H   LIG    1        5.854  -2.183  -1.897  0.00  0.00    +0.420 HD
ATOM      4  C   LIG    1        6.278  -0.253  -1.497  0.00  0.00    +0.510 C 
ATOM      5  O   LIG    1        7.167   0.569  -1.428  0.00  0.00    -0.510 OA
BRANCH   2  13
ATOM      6  C   LIG    1        8.022  -2.771  -3.355  0.00  0.00    +0.110 A 
ATOM      7  C   LIG    1        9.300  -3.092  -3.780  0.00  0.00    -0.040 A 
ATOM      8  C   LIG    1       10.398  -2.495  -3.184  0.00  0.00    -0.010 A 
ATOM      9  C   LIG    1       10.221  -1.575  -2.166  0.00  0.00    -0.090 A 
ATOM     10  C   LIG    1        8.948  -1.246  -1.740  0.00  0.00    +0.090 A 
ATOM     11  C   LIG    1       11.420  -0.929  -1.520  0.00  0.00    +0.100 C 
ATOM     12 CL   LIG    1       12.000  -2.904  -3.713  0.00  0.00    -0.060 Cl
ATOM     13  C   LIG    1        7.844  -1.840  -2.333  0.00  0.00    +0.120 A 
BRANCH   6  15
ATOM     14  C   LIG    1        7.201  -4.305  -4.976  0.00  0.00    +0.260 C 
ATOM     15  O   LIG    1        6.943  -3.360  -3.936  0.00  0.00    -0.310 OA
ENDBRANCH   6  15
ENDBRANCH   2  13
ENDBRANCH   1   4
BRANCH   1  16
ATOM     16  N   LIG    1        4.833   1.537  -0.725  0.00  0.00    -0.730 N 
ATOM     17  H   LIG    1        5.648   2.062  -0.726  0.00  0.00    +0.420 HD
BRANCH  16  18
ATOM     18  C   LIG    1        3.625   2.123  -0.337  0.00  0.00    +0.240 A 
ATOM     19  C   LIG    1        2.459   1.372  -0.335  0.00  0.00    +0.010 A 
ATOM     20  C   LIG    1        1.261   1.966   0.053  0.00  0.00    -0.070 A 
ATOM     21  C   LIG    1        1.237   3.309   0.438  0.00  0.00    -0.110 A 
ATOM     22  C   LIG    1       -0.070   3.929   0.856  0.00  0.00    +0.100 C 
ATOM     23  C   LIG    1       -1.216   3.323   0.048  0.00  0.00    +0.270 C 
ATOM     24  N   LIG    1       -1.175   1.864   0.088  0.00  0.00    -0.720 N 
ATOM     25  H   LIG    1       -2.005   1.365   0.133  0.00  0.00    +0.410 HD
ATOM     26  C   LIG    1        2.400   4.048   0.433  0.00  0.00    +0.100 A 
ATOM     27  C   LIG    1       -0.003   1.198   0.067  0.00  0.00    +0.570 C 
ATOM     28  O   LIG    1        0.015  -0.017   0.056  0.00  0.00    -0.530 OA
ATOM     29  C   LIG    1        3.592   3.460   0.047  0.00  0.00    -0.140 A 
ATOM     30 BR   LIG    1        5.185   4.479   0.042  0.00  0.00    -0.040 Br
ENDBRANCH  16  18
ENDBRANCH   1  16
TORSDOF 5
