REMARK  Name = ZINCrH000004jsxT.0
REMARK                            x       y       z     vdW  Elec       q    Type
REMARK                         _______ _______ _______ _____ _____    ______ ____
ROOT
ATOM      1  C   LIG    1       -3.281   3.775   1.008  0.00  0.00    +0.590 C 
ATOM      2  N   LIG    1       -2.316   3.992   0.092  0.00  0.00    -0.560 N 
ATOM      3  C   LIG    1       -2.596   4.744  -1.141  0.00  0.00    +0.300 C 
ATOM      4  C   LIG    1       -2.210   6.195  -0.975  0.00  0.00    +0.010 C 
ATOM      5  C   LIG    1       -0.717   6.409  -0.768  0.00  0.00    +0.020 C 
ATOM      6  C   LIG    1       -0.269   5.883   0.592  0.00  0.00    +0.080 C 
ATOM      7  C   LIG    1        0.023   4.398   0.480  0.00  0.00    -0.120 A 
ATOM      8  C   LIG    1        1.323   3.938   0.604  0.00  0.00    +0.140 A 
ATOM      9  C   LIG    1        1.574   2.572   0.556  0.00  0.00    -0.070 A 
ATOM     10  C   LIG    1        0.532   1.681   0.385  0.00  0.00    +0.060 A 
ATOM     11  C   LIG    1       -0.763   2.143   0.244  0.00  0.00    -0.020 A 
ATOM     12  C   LIG    1       -1.016   3.508   0.286  0.00  0.00    +0.170 A 
ATOM     13  O   LIG    1       -4.380   4.276   0.863  0.00  0.00    -0.510 OA
ENDROOT
BRANCH   1  19
ATOM     14  N   LIG    1       -2.131   0.661   5.472  0.00  0.00    -0.390 N 
ATOM     15  N   LIG    1       -0.965   1.290   5.920  0.00  0.00    -0.240 NA
ATOM     16  C   LIG    1       -0.664   2.287   5.138  0.00  0.00    +0.290 A 
ATOM     17  C   LIG    1       -1.680   2.348   4.091  0.00  0.00    -0.240 A 
ATOM     18  C   LIG    1       -1.892   3.179   2.990  0.00  0.00    +0.200 A 
ATOM     19  C   LIG    1       -3.005   2.929   2.186  0.00  0.00    -0.230 A 
ATOM     20  C   LIG    1       -3.860   1.867   2.513  0.00  0.00    +0.250 A 
ATOM     21  N   LIG    1       -3.629   1.100   3.552  0.00  0.00    -0.500 NA
ATOM     22  C   LIG    1       -5.065   1.598   1.650  0.00  0.00    +0.140 C 
ATOM     23  C   LIG    1       -2.584   1.296   4.350  0.00  0.00    +0.340 A 
BRANCH  14  25
ATOM     24  C   LIG    1       -2.196  -1.783   5.507  0.00  0.00    +0.030 C 
ATOM     25  C   LIG    1       -2.766  -0.496   6.106  0.00  0.00    +0.340 C 
ENDBRANCH  14  25
ENDBRANCH   1  19
BRANCH   8  26
ATOM     26  O   LIG    1        2.346   4.816   0.772  0.00  0.00    -0.310 OA
ATOM     27  C   LIG    1        3.660   4.266   0.893  0.00  0.00    +0.250 C 
ENDBRANCH   8  26
TORSDOF 3
