REMARK  Name = ZINCpk00000y6utM.0
REMARK                            x       y       z     vdW  Elec       q    Type
REMARK                         _______ _______ _______ _____ _____    ______ ____
ROOT
ATOM      1  C   LIG    1        8.432   1.690   0.949  0.00  0.00    +0.350 C 
ATOM      2  C   LIG    1        8.570   0.732   2.136  0.00  0.00    +0.030 C 
ATOM      3  C   LIG    1        8.628  -0.708   1.622  0.00  0.00    +0.030 C 
ATOM      4  C   LIG    1        7.329  -1.039   0.883  0.00  0.00    +0.020 C 
ATOM      5  C   LIG    1        7.174  -0.103  -0.315  0.00  0.00    +0.270 C 
ATOM      6  N   LIG    1        7.266   1.288   0.150  0.00  0.00    -0.600 N 
ATOM      7  C   LIG    1        6.297   2.176  -0.146  0.00  0.00    +0.570 C 
ATOM      8  O   LIG    1        6.408   3.335   0.204  0.00  0.00    -0.520 OA
ENDROOT
BRANCH   7   9
ATOM      9  C   LIG    1        5.101   1.742  -0.894  0.00  0.00    -0.170 A 
ATOM     10  C   LIG    1        5.193   0.733  -1.853  0.00  0.00    +0.320 A 
ATOM     11  N   LIG    1        4.131   0.338  -2.526  0.00  0.00    -0.460 NA
ATOM     12  C   LIG    1        2.939   0.875  -2.325  0.00  0.00    +0.320 A 
ATOM     13  O   LIG    1        1.865   0.446  -3.035  0.00  0.00    -0.280 OA
ATOM     14  C   LIG    1        0.601   0.467  -2.367  0.00  0.00    +0.320 C 
ATOM     15  C   LIG    1        0.417   1.791  -1.669  0.00  0.00    +0.490 C 
ATOM     16  N   LIG    1        1.495   2.447  -1.187  0.00  0.00    -0.660 N 
ATOM     17  H   LIG    1        1.390   3.288  -0.715  0.00  0.00    +0.420 HD
ATOM     18  O   LIG    1       -0.692   2.266  -1.546  0.00  0.00    -0.490 OA
ATOM     19  C   LIG    1        2.767   1.893  -1.381  0.00  0.00    +0.050 A 
ATOM     20  C   LIG    1        3.853   2.338  -0.652  0.00  0.00    +0.140 A 
ENDBRANCH   7   9
BRANCH   1  24
ATOM     21  C   LIG    1        8.882   6.619   1.708  0.00  0.00    +0.240 C 
ATOM     22  C   LIG    1        8.439   5.180   1.764  0.00  0.00    +0.180 A 
ATOM     23  N   LIG    1        8.941   4.180   1.081  0.00  0.00    -0.480 NA
ATOM     24  C   LIG    1        8.238   3.096   1.453  0.00  0.00    +0.190 A 
ATOM     25  N   LIG    1        7.356   3.486   2.325  0.00  0.00    -0.360 NA
ATOM     26  O   LIG    1        7.458   4.678   2.521  0.00  0.00    +0.080 OA
ENDBRANCH   1  24
TORSDOF 2
