REMARK  Name = ZINCpe000000YBge.0
REMARK                            x       y       z     vdW  Elec       q    Type
REMARK                         _______ _______ _______ _____ _____    ______ ____
ROOT
ATOM      1  N   LIG    1       -1.342   5.465  -2.054  0.00  0.00    -1.090 NA
ATOM      2  H   LIG    1       -2.163   5.427  -1.538  0.00  0.00    +0.420 HD
ENDROOT
BRANCH   1   3
ATOM      3  S   LIG    1       -1.356   5.078  -3.664  0.00  0.00    +2.700 S 
ATOM      4  O   LIG    1       -0.665   6.124  -4.333  0.00  0.00    -0.940 OA
ATOM      5  O   LIG    1       -2.691   4.705  -3.975  0.00  0.00    -0.950 OA
BRANCH   3   6
ATOM      6  C   LIG    1       -0.375   3.628  -3.860  0.00  0.00    -0.680 A 
ATOM      7  C   LIG    1        0.979   3.740  -4.114  0.00  0.00    +0.130 A 
ATOM      8  C   LIG    1        1.752   2.604  -4.264  0.00  0.00    +0.010 A 
ATOM      9  C   LIG    1        1.170   1.349  -4.171  0.00  0.00    +0.110 A 
ATOM     10  O   LIG    1        1.943   0.240  -4.330  0.00  0.00    -0.300 OA
ATOM     11  C   LIG    1        1.397  -0.997  -3.859  0.00  0.00    +0.230 C 
ATOM     12  C   LIG    1       -0.054  -1.099  -4.346  0.00  0.00    +0.230 C 
ATOM     13  O   LIG    1       -0.784   0.015  -3.819  0.00  0.00    -0.300 OA
ATOM     14  C   LIG    1       -0.193   1.237  -3.919  0.00  0.00    +0.040 A 
ATOM     15  C   LIG    1       -0.962   2.380  -3.765  0.00  0.00    +0.150 A 
ENDBRANCH   3   6
ENDBRANCH   1   3
BRANCH   1  16
ATOM     16  C   LIG    1       -0.090   5.866  -1.407  0.00  0.00    +0.260 C 
BRANCH  16  20
ATOM     17  N   LIG    1        1.089   7.968  -0.853  0.00  0.00    -0.850 N 
ATOM     18  H   LIG    1        1.156   8.936  -0.849  0.00  0.00    +0.410 HD
ATOM     19  H   LIG    1        1.797   7.432  -0.464  0.00  0.00    +0.400 HD
ATOM     20  C   LIG    1        0.013   7.369  -1.401  0.00  0.00    +0.500 C 
ATOM     21  O   LIG    1       -0.872   8.040  -1.888  0.00  0.00    -0.520 OA
ENDBRANCH  16  20
BRANCH  16  22
ATOM     22  C   LIG    1       -0.070   5.347   0.032  0.00  0.00    +0.100 C 
BRANCH  22  23
ATOM     23  C   LIG    1       -0.050   3.840   0.023  0.00  0.00    -0.090 A 
ATOM     24  C   LIG    1        1.156   3.165   0.008  0.00  0.00    +0.010 A 
ATOM     25  C   LIG    1        1.175   1.783   0.000  0.00  0.00    +0.000 A 
ATOM     26  C   LIG    1       -0.013   1.076   0.008  0.00  0.00    +0.000 A 
ATOM     27  C   LIG    1       -1.219   1.751   0.017  0.00  0.00    +0.010 A 
ATOM     28  C   LIG    1       -1.238   3.133   0.029  0.00  0.00    +0.010 A 
ENDBRANCH  22  23
ENDBRANCH  16  22
ENDBRANCH   1  16
TORSDOF 6
