REMARK  Name = ZINCvU0000000BuH.0
REMARK                            x       y       z     vdW  Elec       q    Type
REMARK                         _______ _______ _______ _____ _____    ______ ____
ROOT
ATOM      1  C   LIG    1       -2.168  -1.230   2.543  0.00  0.00    -0.010 C 
ATOM      2  C   LIG    1       -0.833  -1.960   2.711  0.00  0.00    +0.030 C 
ATOM      3  C   LIG    1       -0.400  -1.892   4.178  0.00  0.00    +0.270 C 
ATOM      4  N   LIG    1       -1.485  -2.419   5.017  0.00  0.00    -0.610 N 
ATOM      5  C   LIG    1       -2.832  -1.849   4.870  0.00  0.00    +0.280 C 
ATOM      6  C   LIG    1       -1.250  -3.406   5.904  0.00  0.00    +0.550 C 
ATOM      7  O   LIG    1       -2.175  -3.905   6.518  0.00  0.00    -0.540 OA
ATOM      8  C   LIG    1       -3.238  -1.918   3.394  0.00  0.00    +0.040 C 
ENDROOT
BRANCH   1  10
ATOM      9  N   LIG    1       -2.125  -0.328   0.240  0.00  0.00    -0.610 N 
ATOM     10  C   LIG    1       -2.581  -1.266   1.094  0.00  0.00    +0.520 C 
ATOM     11  O   LIG    1       -3.323  -2.139   0.696  0.00  0.00    -0.520 OA
BRANCH   9  12
ATOM     12  C   LIG    1       -2.630  -0.280  -1.134  0.00  0.00    +0.290 C 
ATOM     13  C   LIG    1       -2.423  -1.641  -1.801  0.00  0.00    +0.040 C 
BRANCH  12  14
ATOM     14  C   LIG    1       -4.100   0.052  -1.118  0.00  0.00    -0.060 A 
ATOM     15  C   LIG    1       -4.799   0.035   0.074  0.00  0.00    +0.040 A 
ATOM     16  C   LIG    1       -6.147   0.345   0.090  0.00  0.00    +0.030 A 
ATOM     17  C   LIG    1       -6.797   0.661  -1.087  0.00  0.00    +0.010 A 
ATOM     18  C   LIG    1       -6.100   0.674  -2.281  0.00  0.00    +0.040 A 
ATOM     19  C   LIG    1       -4.751   0.370  -2.296  0.00  0.00    -0.090 A 
ATOM     20 BR   LIG    1       -3.796   0.387  -3.929  0.00  0.00    -0.050 Br
ENDBRANCH  12  14
ENDBRANCH   9  12
BRANCH   9  21
ATOM     21  C   LIG    1       -1.124   0.645   0.687  0.00  0.00    +0.270 C 
BRANCH  21  23
ATOM     22  C   LIG    1       -0.778   2.823   1.860  0.00  0.00    +0.030 C 
ATOM     23  C   LIG    1       -1.823   1.808   1.394  0.00  0.00    -0.010 C 
ENDBRANCH  21  23
ENDBRANCH   9  21
ENDBRANCH   1  10
BRANCH   6  24
ATOM     24  C   LIG    1        0.118  -3.877   6.129  0.00  0.00    -0.090 C 
ATOM     25  C   LIG    1        0.342  -4.935   6.934  0.00  0.00    +0.130 C 
BRANCH  25  26
ATOM     26  C   LIG    1        1.718  -5.409   7.160  0.00  0.00    -0.080 A 
ATOM     27  C   LIG    1        2.793  -4.768   6.538  0.00  0.00    +0.030 A 
ATOM     28  C   LIG    1        4.079  -5.214   6.760  0.00  0.00    +0.010 A 
ATOM     29  C   LIG    1        4.305  -6.301   7.586  0.00  0.00    +0.020 A 
ATOM     30  C   LIG    1        3.245  -6.945   8.201  0.00  0.00    +0.010 A 
ATOM     31  C   LIG    1        1.954  -6.507   7.994  0.00  0.00    +0.040 A 
ENDBRANCH  25  26
ENDBRANCH   6  24
TORSDOF 7
