REMARK  Name = ZINCvU0000000BUH.1
REMARK                            x       y       z     vdW  Elec       q    Type
REMARK                         _______ _______ _______ _____ _____    ______ ____
ROOT
ATOM      1  C   LIG    1       -0.560   3.038   5.829  0.00  0.00    +0.270 A 
ATOM      2  N   LIG    1        0.033   3.385   6.928  0.00  0.00    -0.460 NA
ATOM      3  C   LIG    1       -0.724   3.891   7.883  0.00  0.00    +0.100 A 
ATOM      4  C   LIG    1       -2.021   3.975   7.576  0.00  0.00    -0.070 A 
ATOM      5  S   LIG    1       -2.236   3.358   5.940  0.00  0.00    +0.160 S 
ENDROOT
BRANCH   1   8
ATOM      6  C   LIG    1        2.100   1.703   3.539  0.00  0.00    +0.120 C 
ATOM      7  C   LIG    1        1.387   2.189   4.774  0.00  0.00    +0.510 C 
ATOM      8  N   LIG    1        0.074   2.490   4.719  0.00  0.00    -0.480 N 
ATOM      9  O   LIG    1        1.994   2.310   5.817  0.00  0.00    -0.460 OA
BRANCH   8  10
ATOM     10  C   LIG    1       -0.651   2.251   3.545  0.00  0.00    +0.100 A 
ATOM     11  C   LIG    1       -1.600   1.238   3.507  0.00  0.00    +0.020 A 
ATOM     12  C   LIG    1       -2.313   1.005   2.348  0.00  0.00    +0.030 A 
ATOM     13  C   LIG    1       -2.088   1.783   1.227  0.00  0.00    -0.070 A 
ATOM     14  C   LIG    1       -1.139   2.789   1.260  0.00  0.00    -0.070 A 
ATOM     15  C   LIG    1       -0.891   3.630   0.034  0.00  0.00    +0.110 C 
ATOM     16  C   LIG    1       -2.873   1.531  -0.034  0.00  0.00    +0.100 C 
ATOM     17  C   LIG    1       -0.422   3.027   2.416  0.00  0.00    +0.030 A 
ENDBRANCH   8  10
ENDBRANCH   1   8
BRANCH   3  18
ATOM     18  C   LIG    1       -0.171   4.338   9.211  0.00  0.00    +0.220 C 
BRANCH  18  19
ATOM     19  S   LIG    1        0.302   6.082   9.112  0.00  0.00    +0.030 S 
BRANCH  19  20
ATOM     20  C   LIG    1        0.898   6.331  10.751  0.00  0.00    +0.260 A 
ATOM     21  N   LIG    1        0.935   5.427  11.706  0.00  0.00    -0.530 NA
ATOM     22  C   LIG    1        1.453   5.968  12.818  0.00  0.00    +0.280 A 
ATOM     23  N   LIG    1        1.742   7.228  12.584  0.00  0.00    -0.300 NA
ATOM     24  N   LIG    1        1.391   7.487  11.250  0.00  0.00    -0.460 N 
ATOM     25  H   LIG    1        1.484   8.329  10.778  0.00  0.00    +0.450 HD
BRANCH  22  26
ATOM     26  C   LIG    1        1.659   5.260  14.106  0.00  0.00    -0.030 A 
ATOM     27  C   LIG    1        1.304   3.918  14.231  0.00  0.00    +0.060 A 
ATOM     28  C   LIG    1        1.502   3.264  15.430  0.00  0.00    +0.000 A 
ATOM     29  C   LIG    1        2.042   3.939  16.509  0.00  0.00    -0.070 A 
ATOM     30  C   LIG    1        2.392   5.273  16.392  0.00  0.00    +0.000 A 
ATOM     31  C   LIG    1        2.250   3.221  17.817  0.00  0.00    +0.090 C 
ATOM     32  C   LIG    1        2.203   5.936  15.196  0.00  0.00    +0.050 A 
ENDBRANCH  22  26
ENDBRANCH  19  20
ENDBRANCH  18  19
ENDBRANCH   3  18
TORSDOF 6
