REMARK  Name = ZINCpk00000y6vxh.0
REMARK                            x       y       z     vdW  Elec       q    Type
REMARK                         _______ _______ _______ _____ _____    ______ ____
ROOT
ATOM      1  C   LIG    1       -0.179   1.038  -2.335  0.00  0.00    +0.470 A 
ATOM      2  C   LIG    1        1.189   1.201  -2.630  0.00  0.00    -0.150 A 
ATOM      3  N   LIG    1        2.218   1.798  -2.004  0.00  0.00    -0.200 NA
ATOM      4  N   LIG    1        3.297   1.659  -2.692  0.00  0.00    +0.030 NA
ATOM      5  N   LIG    1        3.015   0.924  -3.854  0.00  0.00    -0.370 N 
ATOM      6  C   LIG    1        1.681   0.629  -3.816  0.00  0.00    +0.320 A 
ATOM      7  N   LIG    1        0.844  -0.029  -4.614  0.00  0.00    -0.520 NA
ATOM      8  C   LIG    1       -0.428  -0.150  -4.299  0.00  0.00    +0.580 A 
ATOM      9  N   LIG    1       -0.936   0.365  -3.193  0.00  0.00    -0.500 NA
ENDROOT
BRANCH   1  12
ATOM     10  C   LIG    1       -1.466   3.591  -0.011  0.00  0.00    +0.200 C 
ATOM     11  C   LIG    1       -0.729   3.040  -1.234  0.00  0.00    +0.230 C 
ATOM     12  N   LIG    1       -0.723   1.572  -1.182  0.00  0.00    -0.480 N 
ATOM     13  C   LIG    1       -0.013   1.086   0.008  0.00  0.00    +0.220 C 
ATOM     14  C   LIG    1       -0.729   1.579   1.267  0.00  0.00    +0.310 C 
ATOM     15  F   LIG    1       -0.041   1.132   2.401  0.00  0.00    -0.190 F 
ATOM     16  F   LIG    1       -2.036   1.081   1.287  0.00  0.00    -0.180 F 
ATOM     17  C   LIG    1       -0.764   3.110   1.262  0.00  0.00    +0.010 C 
BRANCH  10  18
ATOM     18  O   LIG    1       -1.454   5.020  -0.051  0.00  0.00    -0.560 OA
ATOM     19  H   LIG    1       -1.905   5.438   0.695  0.00  0.00    +0.390 HD
ENDBRANCH  10  18
ENDBRANCH   1  12
BRANCH   5  20
ATOM     20  C   LIG    1        3.966   0.547  -4.903  0.00  0.00    +0.410 C 
BRANCH  20  21
ATOM     21  C   LIG    1        4.005   1.624  -5.956  0.00  0.00    -0.130 A 
ATOM     22  C   LIG    1        3.149   1.563  -7.039  0.00  0.00    +0.040 A 
ATOM     23  C   LIG    1        3.183   2.553  -8.003  0.00  0.00    +0.010 A 
ATOM     24  C   LIG    1        4.079   3.600  -7.888  0.00  0.00    +0.030 A 
ATOM     25  C   LIG    1        4.939   3.658  -6.807  0.00  0.00    +0.010 A 
ATOM     26  C   LIG    1        4.902   2.670  -5.841  0.00  0.00    +0.040 A 
ENDBRANCH  20  21
ENDBRANCH   5  20
TORSDOF 4
