REMARK  Name = ZINCqH0000003svZ.0
REMARK                            x       y       z     vdW  Elec       q    Type
REMARK                         _______ _______ _______ _____ _____    ______ ____
ROOT
ATOM      1  N   LIG    1        5.862   4.270  -0.028  0.00  0.00    -0.650 N 
ATOM      2  H   LIG    1        5.204   4.980  -0.088  0.00  0.00    +0.430 HD
ATOM      3  C   LIG    1        5.465   2.982  -0.035  0.00  0.00    +0.540 C 
ATOM      4  O   LIG    1        6.289   2.093  -0.061  0.00  0.00    -0.500 OA
ENDROOT
BRANCH   1  10
ATOM      5  C   LIG    1        7.698   5.796  -0.445  0.00  0.00    -0.170 A 
ATOM      6  C   LIG    1        9.058   6.098  -0.341  0.00  0.00    +0.100 A 
ATOM      7  C   LIG    1        9.918   5.198   0.251  0.00  0.00    -0.010 A 
ATOM      8  C   LIG    1        9.440   3.996   0.749  0.00  0.00    +0.090 A 
ATOM      9  C   LIG    1        8.098   3.687   0.657  0.00  0.00    +0.010 A 
ATOM     10  C   LIG    1        7.216   4.580   0.065  0.00  0.00    +0.220 A 
BRANCH   5  11
ATOM     11  C   LIG    1        6.773   6.751  -1.082  0.00  0.00    +0.520 C 
ATOM     12  O   LIG    1        5.579   6.529  -1.087  0.00  0.00    -0.520 OA
BRANCH  11  13
ATOM     13  O   LIG    1        7.253   7.870  -1.659  0.00  0.00    -0.350 OA
BRANCH  13  15
ATOM     14  C   LIG    1        7.011   9.972  -2.865  0.00  0.00    +0.070 C 
ATOM     15  C   LIG    1        6.285   8.766  -2.267  0.00  0.00    +0.200 C 
ENDBRANCH  13  15
ENDBRANCH  11  13
ENDBRANCH   5  11
ENDBRANCH   1  10
BRANCH   3  16
ATOM     16  C   LIG    1        3.996   2.646  -0.009  0.00  0.00    +0.110 C 
BRANCH  16  17
ATOM     17  S   LIG    1        3.787   0.848  -0.025  0.00  0.00    +0.160 S 
BRANCH  17  18
ATOM     18  C   LIG    1        2.029   0.744   0.008  0.00  0.00    +0.120 A 
ATOM     19  N   LIG    1        1.192   1.754   0.037  0.00  0.00    -0.280 NA
ATOM     20  N   LIG    1       -0.016   1.311   0.056  0.00  0.00    -0.260 NA
ATOM     21  C   LIG    1        0.002  -0.002   0.041  0.00  0.00    +0.250 A 
ATOM     22  O   LIG    1        1.297  -0.388   0.010  0.00  0.00    -0.200 OA
BRANCH  21  23
ATOM     23  C   LIG    1       -1.171  -0.889   0.054  0.00  0.00    -0.160 A 
ATOM     24  C   LIG    1       -2.469  -0.479   0.085  0.00  0.00    +0.100 A 
ATOM     25  C   LIG    1       -3.391  -1.503   0.091  0.00  0.00    +0.020 A 
ATOM     26  C   LIG    1       -2.873  -2.735   0.066  0.00  0.00    -0.010 A 
ATOM     27  S   LIG    1       -1.117  -2.647   0.025  0.00  0.00    +0.180 S 
ENDBRANCH  21  23
ENDBRANCH  17  18
ENDBRANCH  16  17
ENDBRANCH   3  16
TORSDOF 8
