REMARK  Name = ZINCqH0000031z9U.0
REMARK                            x       y       z     vdW  Elec       q    Type
REMARK                         _______ _______ _______ _____ _____    ______ ____
ROOT
ATOM      1  C   LIG    1       -6.570  -3.483   1.673  0.00  0.00    +0.560 C 
ATOM      2  N   LIG    1       -5.400  -2.864   1.419  0.00  0.00    -0.720 N 
ATOM      3  H   LIG    1       -4.835  -2.574   2.153  0.00  0.00    +0.400 HD
ATOM      4  O   LIG    1       -7.278  -3.846   0.754  0.00  0.00    -0.540 OA
ENDROOT
BRANCH   1   8
ATOM      5  C   LIG    1       -7.780  -4.162   5.690  0.00  0.00    +0.130 A 
ATOM      6  C   LIG    1       -6.576  -3.525   5.427  0.00  0.00    -0.040 A 
ATOM      7  C   LIG    1       -6.180  -3.303   4.125  0.00  0.00    +0.050 A 
ATOM      8  C   LIG    1       -6.992  -3.720   3.068  0.00  0.00    -0.140 A 
ATOM      9  C   LIG    1       -8.208  -4.356   3.333  0.00  0.00    +0.040 A 
ATOM     10  C   LIG    1       -8.595  -4.581   4.639  0.00  0.00    +0.090 A 
BRANCH  10  11
ATOM     11  O   LIG    1       -9.775  -5.205   4.901  0.00  0.00    -0.300 OA
ATOM     12  C   LIG    1      -10.560  -5.606   3.776  0.00  0.00    +0.240 C 
ENDBRANCH  10  11
BRANCH   5  13
ATOM     13  O   LIG    1       -8.165  -4.379   6.974  0.00  0.00    -0.290 OA
BRANCH  13  14
ATOM     14  C   LIG    1       -7.282  -3.925   8.002  0.00  0.00    +0.220 C 
BRANCH  14  16
ATOM     15  C   LIG    1       -7.117  -4.769  10.287  0.00  0.00    +0.040 C 
ATOM     16  C   LIG    1       -7.871  -4.250   9.351  0.00  0.00    -0.040 C 
ENDBRANCH  14  16
ENDBRANCH  13  14
ENDBRANCH   5  13
ENDBRANCH   1   8
BRANCH   2  17
ATOM     17  C   LIG    1       -4.981  -2.629   0.035  0.00  0.00    +0.320 C 
BRANCH  17  18
ATOM     18  C   LIG    1       -3.648  -1.927   0.026  0.00  0.00    -0.140 A 
ATOM     19  C   LIG    1       -2.479  -2.665   0.011  0.00  0.00    +0.080 A 
ATOM     20  C   LIG    1       -1.255  -2.024   0.003  0.00  0.00    +0.000 A 
ATOM     21  C   LIG    1       -1.200  -0.637   0.010  0.00  0.00    +0.110 A 
ATOM     22  C   LIG    1       -2.374   0.101   0.031  0.00  0.00    -0.050 A 
ATOM     23  C   LIG    1       -3.595  -0.545   0.034  0.00  0.00    +0.070 A 
BRANCH  21  24
ATOM     24  O   LIG    1        0.002  -0.004   0.002  0.00  0.00    -0.320 OA
BRANCH  24  25
ATOM     25  C   LIG    1       -0.017   1.425   0.010  0.00  0.00    +0.590 C 
ATOM     26  F   LIG    1       -0.672   1.876   1.161  0.00  0.00    -0.200 F 
ATOM     27  F   LIG    1       -0.694   1.888  -1.123  0.00  0.00    -0.200 F 
ENDBRANCH  24  25
ENDBRANCH  21  24
ENDBRANCH  17  18
ENDBRANCH   2  17
TORSDOF 9
