REMARK  Name = ZINCpe00000gMRvB.0
REMARK                            x       y       z     vdW  Elec       q    Type
REMARK                         _______ _______ _______ _____ _____    ______ ____
ROOT
ATOM      1  C   LIG    1       -1.330   1.944   0.019  0.00  0.00    +0.180 C 
ATOM      2  C   LIG    1       -1.483   2.732  -1.283  0.00  0.00    +0.080 C 
ENDROOT
BRANCH   1   3
ATOM      3  C   LIG    1       -0.014   1.209   0.009  0.00  0.00    +0.520 C 
ATOM      4  N   LIG    1        1.143   1.898   0.001  0.00  0.00    -0.610 N 
ATOM      5  C   LIG    1        1.140   3.368   0.009  0.00  0.00    +0.260 C 
ATOM      6  C   LIG    1        2.010   3.857   1.171  0.00  0.00    +0.020 C 
ATOM      7  C   LIG    1        3.402   3.232   1.059  0.00  0.00    +0.040 C 
ATOM      8  C   LIG    1        3.289   1.709   1.148  0.00  0.00    -0.030 C 
ATOM      9  C   LIG    1        2.434   1.195  -0.009  0.00  0.00    +0.310 C 
ATOM     10  O   LIG    1        0.002  -0.004   0.002  0.00  0.00    -0.510 OA
BRANCH   8  11
ATOM     11  C   LIG    1        4.664   1.096   1.070  0.00  0.00    +0.530 C 
ATOM     12  O   LIG    1        4.933   0.323   0.175  0.00  0.00    -0.540 OA
ATOM     13  N   LIG    1        5.594   1.408   1.994  0.00  0.00    -0.850 N 
ATOM     14  H   LIG    1        6.479   1.014   1.944  0.00  0.00    +0.400 HD
ATOM     15  H   LIG    1        5.378   2.026   2.710  0.00  0.00    +0.400 HD
ENDBRANCH   8  11
ENDBRANCH   1   3
BRANCH   1  16
ATOM     16  O   LIG    1       -2.417   0.990   0.138  0.00  0.00    -0.330 OA
BRANCH  16  17
ATOM     17  C   LIG    1       -3.530   1.408   0.761  0.00  0.00    +0.460 C 
ATOM     18  O   LIG    1       -3.593   2.535   1.193  0.00  0.00    -0.500 OA
BRANCH  17  19
ATOM     19  C   LIG    1       -4.700   0.473   0.923  0.00  0.00    +0.170 C 
BRANCH  19  24
ATOM     20  C   LIG    1       -8.975   3.197   3.705  0.00  0.00    +0.090 C 
ATOM     21  C   LIG    1       -7.860   2.487   2.981  0.00  0.00    -0.100 A 
ATOM     22  C   LIG    1       -7.790   2.535   1.603  0.00  0.00    +0.030 A 
ATOM     23  C   LIG    1       -6.768   1.883   0.938  0.00  0.00    +0.020 A 
ATOM     24  C   LIG    1       -5.813   1.182   1.651  0.00  0.00    -0.070 A 
ATOM     25  C   LIG    1       -5.882   1.127   3.030  0.00  0.00    +0.010 A 
ATOM     26  C   LIG    1       -6.904   1.784   3.699  0.00  0.00    +0.100 A 
BRANCH  26  27
ATOM     27  O   LIG    1       -6.970   1.735   5.056  0.00  0.00    -0.500 OA
ATOM     28  H   LIG    1       -7.487   0.993   5.398  0.00  0.00    +0.390 HD
ENDBRANCH  26  27
ENDBRANCH  19  24
ENDBRANCH  17  19
ENDBRANCH  16  17
ENDBRANCH   1  16
TORSDOF 7
