REMARK  Name = ZINCrD0000074tJX.0
REMARK                            x       y       z     vdW  Elec       q    Type
REMARK                         _______ _______ _______ _____ _____    ______ ____
ROOT
ATOM      1  C   LIG    1        3.724   3.924  -0.013  0.00  0.00    +0.250 C 
ENDROOT
BRANCH   1   2
ATOM      2  C   LIG    1        2.382   4.609   0.003  0.00  0.00    +0.040 A 
ATOM      3  C   LIG    1        2.291   5.963   0.010  0.00  0.00    -0.080 A 
ATOM      4  C   LIG    1        1.022   6.581   0.025  0.00  0.00    +0.510 A 
ATOM      5  O   LIG    1       -0.112   5.862   0.033  0.00  0.00    -0.270 OA
ATOM      6  C   LIG    1       -0.091   4.512   0.026  0.00  0.00    +0.160 A 
ATOM      7  C   LIG    1       -1.274   3.785   0.034  0.00  0.00    +0.020 A 
ATOM      8  C   LIG    1       -1.235   2.406   0.021  0.00  0.00    -0.020 A 
ATOM      9  C   LIG    1       -0.021   1.732   0.012  0.00  0.00    -0.060 A 
ATOM     10  C   LIG    1        1.164   2.433   0.004  0.00  0.00    +0.120 A 
ATOM     11 CL   LIG    1        0.002  -0.004   0.002  0.00  0.00    -0.050 Cl
ATOM     12  C   LIG    1       -2.523   1.624   0.023  0.00  0.00    +0.120 C 
ATOM     13  O   LIG    1        0.954   7.796   0.032  0.00  0.00    -0.460 OA
ATOM     14  C   LIG    1        1.139   3.831   0.011  0.00  0.00    -0.140 A 
ENDBRANCH   1   2
BRANCH   1  18
ATOM     15  N   LIG    1        5.870   3.537   3.606  0.00  0.00    -0.530 NA
ATOM     16  C   LIG    1        5.629   2.322   2.815  0.00  0.00    +0.200 C 
ATOM     17  C   LIG    1        5.300   2.713   1.372  0.00  0.00    +0.200 C 
ATOM     18  N   LIG    1        4.118   3.587   1.362  0.00  0.00    -0.530 NA
ATOM     19  C   LIG    1        4.359   4.802   2.153  0.00  0.00    +0.180 C 
ATOM     20  C   LIG    1        4.689   4.411   3.596  0.00  0.00    +0.180 C 
BRANCH  15  21
ATOM     21  C   LIG    1        6.264   3.201   4.981  0.00  0.00    +0.300 C 
BRANCH  21  26
ATOM     22  C   LIG    1        5.015   7.073   8.039  0.00  0.00    +0.160 C 
ATOM     23  C   LIG    1        5.747   6.117   7.132  0.00  0.00    +0.020 A 
ATOM     24  N   LIG    1        6.987   6.204   6.746  0.00  0.00    -0.360 NA
ATOM     25  O   LIG    1        7.292   5.287   6.019  0.00  0.00    +0.110 OA
ATOM     26  C   LIG    1        6.263   4.450   5.823  0.00  0.00    -0.020 A 
ATOM     27  C   LIG    1        5.221   4.952   6.528  0.00  0.00    -0.060 A 
ENDBRANCH  21  26
ENDBRANCH  15  21
ENDBRANCH   1  18
TORSDOF 4
