REMARK  Name = ZINCvU0000000HBh.0
REMARK                            x       y       z     vdW  Elec       q    Type
REMARK                         _______ _______ _______ _____ _____    ______ ____
ROOT
ATOM      1  C   LIG    1       -4.965   3.777  -0.394  0.00  0.00    +0.340 C 
ENDROOT
BRANCH   1   2
ATOM      2  C   LIG    1       -3.936   2.901   0.274  0.00  0.00    -0.080 A 
ATOM      3  C   LIG    1       -4.070   1.526   0.237  0.00  0.00    +0.050 A 
ATOM      4  C   LIG    1       -3.130   0.723   0.854  0.00  0.00    +0.040 A 
ATOM      5  C   LIG    1       -2.049   1.295   1.500  0.00  0.00    -0.030 A 
ATOM      6  C   LIG    1       -1.912   2.671   1.532  0.00  0.00    +0.020 A 
ATOM      7 CL   LIG    1       -0.864   0.286   2.269  0.00  0.00    -0.070 Cl
ATOM      8  C   LIG    1       -2.856   3.474   0.919  0.00  0.00    +0.030 A 
ENDBRANCH   1   2
BRANCH   1   9
ATOM      9  C   LIG    1       -6.244   3.745   0.401  0.00  0.00    -0.090 A 
ATOM     10  C   LIG    1       -7.234   2.834   0.082  0.00  0.00    +0.020 A 
ATOM     11  C   LIG    1       -8.406   2.802   0.815  0.00  0.00    +0.000 A 
ATOM     12  C   LIG    1       -8.592   3.688   1.859  0.00  0.00    +0.010 A 
ATOM     13  C   LIG    1       -7.605   4.603   2.175  0.00  0.00    +0.000 A 
ATOM     14  C   LIG    1       -6.431   4.631   1.446  0.00  0.00    -0.030 A 
BRANCH  14  15
ATOM     15  C   LIG    1       -5.355   5.629   1.789  0.00  0.00    -0.020 C 
ATOM     16  C   LIG    1       -5.467   6.355   3.131  0.00  0.00    +0.030 C 
ATOM     17  C   LIG    1       -5.748   7.107   1.829  0.00  0.00    +0.040 C 
ENDBRANCH  14  15
ENDBRANCH   1   9
BRANCH   1  18
ATOM     18  N   LIG    1       -5.220   3.283  -1.750  0.00  0.00    -1.080 NA
ATOM     19  H   LIG    1       -5.199   2.330  -1.931  0.00  0.00    +0.430 HD
BRANCH  18  20
ATOM     20  S   LIG    1       -5.543   4.351  -2.973  0.00  0.00    +2.660 S 
ATOM     21  O   LIG    1       -6.539   5.237  -2.480  0.00  0.00    -0.900 OA
ATOM     22  O   LIG    1       -5.707   3.575  -4.151  0.00  0.00    -0.940 OA
BRANCH  20  29
ATOM     23  C   LIG    1       -2.926   4.723  -3.659  0.00  0.00    +0.060 A 
ATOM     24  C   LIG    1       -1.789   5.484  -3.853  0.00  0.00    +0.110 A 
ATOM     25  C   LIG    1       -1.813   6.842  -3.595  0.00  0.00    +0.120 A 
ATOM     26  C   LIG    1       -2.976   7.440  -3.146  0.00  0.00    +0.090 A 
ATOM     27  C   LIG    1       -4.116   6.679  -2.956  0.00  0.00    -0.010 A 
ATOM     28 BR   LIG    1       -5.707   7.497  -2.342  0.00  0.00    +0.060 Br
ATOM     29  C   LIG    1       -4.091   5.321  -3.215  0.00  0.00    -0.620 A 
BRANCH  23  31
ATOM     30  O   LIG    1       -2.281   2.840  -4.889  0.00  0.00    -0.110 OA
ATOM     31  N   LIG    1       -2.899   3.268  -3.931  0.00  0.00    +0.010 N 
ATOM     32  O   LIG    1       -3.494   2.500  -3.196  0.00  0.00    -0.150 OA
ENDBRANCH  23  31
ENDBRANCH  20  29
ENDBRANCH  18  20
ENDBRANCH   1  18
TORSDOF 7
