REMARK  Name = ZINCrD0000074cAi.0
REMARK                            x       y       z     vdW  Elec       q    Type
REMARK                         _______ _______ _______ _____ _____    ______ ____
ROOT
ATOM      1  C   LIG    1       -5.944   3.446   1.068  0.00  0.00    +0.510 C 
ATOM      2  O   LIG    1       -5.950   2.257   1.318  0.00  0.00    -0.500 OA
ENDROOT
BRANCH   1   3
ATOM      3  C   LIG    1       -7.085   4.292   1.474  0.00  0.00    -0.120 A 
ATOM      4  C   LIG    1       -7.078   5.660   1.194  0.00  0.00    +0.080 A 
ATOM      5  C   LIG    1       -8.150   6.443   1.571  0.00  0.00    +0.030 A 
ATOM      6  C   LIG    1       -9.224   5.878   2.236  0.00  0.00    -0.070 A 
ATOM      7  C   LIG    1       -9.234   4.524   2.521  0.00  0.00    +0.010 A 
ATOM      8  C   LIG    1       -8.172   3.728   2.145  0.00  0.00    +0.090 A 
BRANCH   6   9
ATOM      9  C   LIG    1      -10.388   6.741   2.650  0.00  0.00    +0.350 C 
BRANCH   9  10
ATOM     10  N   LIG    1      -10.149   7.271   3.994  0.00  0.00    -0.620 N 
ATOM     11  C   LIG    1      -10.566   6.605   5.234  0.00  0.00    +0.260 C 
ATOM     12  C   LIG    1       -9.739   7.273   6.357  0.00  0.00    +0.040 C 
ATOM     13  C   LIG    1       -9.443   8.661   5.745  0.00  0.00    +0.050 C 
ATOM     14  C   LIG    1       -9.524   8.433   4.251  0.00  0.00    +0.520 C 
ATOM     15  O   LIG    1       -9.088   9.189   3.409  0.00  0.00    -0.530 OA
ENDBRANCH   9  10
ENDBRANCH   6   9
ENDBRANCH   1   3
BRANCH   1  16
ATOM     16  O   LIG    1       -4.896   3.993   0.422  0.00  0.00    -0.330 OA
BRANCH  16  18
ATOM     17  C   LIG    1       -4.073   2.528  -1.340  0.00  0.00    +0.080 C 
ATOM     18  C   LIG    1       -3.811   3.102   0.053  0.00  0.00    +0.170 C 
BRANCH  18  19
ATOM     19  C   LIG    1       -2.513   3.869   0.044  0.00  0.00    +0.400 C 
ATOM     20  O   LIG    1       -2.525   5.081   0.050  0.00  0.00    -0.420 OA
BRANCH  19  21
ATOM     21  C   LIG    1       -1.233   3.146   0.029  0.00  0.00    -0.180 A 
ATOM     22  C   LIG    1       -1.216   1.747   0.017  0.00  0.00    +0.090 A 
ATOM     23  C   LIG    1       -0.013   1.076   0.008  0.00  0.00    -0.010 A 
ATOM     24  C   LIG    1        1.180   1.784   0.000  0.00  0.00    +0.140 A 
ATOM     25  C   LIG    1        1.170   3.171   0.007  0.00  0.00    -0.010 A 
ATOM     26  F   LIG    1        2.357   1.120  -0.014  0.00  0.00    -0.130 F 
ATOM     27  C   LIG    1       -0.026   3.854   0.021  0.00  0.00    +0.120 A 
ENDBRANCH  19  21
ENDBRANCH  18  19
ENDBRANCH  16  18
ENDBRANCH   1  16
TORSDOF 7
