REMARK  Name = ZINCtV000002Iz5c.0
REMARK                            x       y       z     vdW  Elec       q    Type
REMARK                         _______ _______ _______ _____ _____    ______ ____
ROOT
ATOM      1  C   LIG    1        1.675   3.317   0.003  0.00  0.00    +0.210 A 
ATOM      2  C   LIG    1        1.304   1.949   0.000  0.00  0.00    -0.170 A 
ATOM      3  C   LIG    1       -0.016   1.329   0.009  0.00  0.00    -0.000 A 
ATOM      4  C   LIG    1        0.002  -0.004   0.002  0.00  0.00    +0.010 A 
ATOM      5  S   LIG    1        1.644  -0.618  -0.017  0.00  0.00    +0.200 S 
ATOM      6  C   LIG    1        2.328   1.001  -0.015  0.00  0.00    +0.100 A 
ATOM      7  N   LIG    1        3.601   1.418  -0.025  0.00  0.00    -0.490 NA
ATOM      8  C   LIG    1        3.895   2.698  -0.021  0.00  0.00    +0.350 A 
ATOM      9  C   LIG    1        5.344   3.113  -0.033  0.00  0.00    +0.180 C 
ATOM     10  N   LIG    1        2.963   3.633  -0.007  0.00  0.00    -0.520 NA
ENDROOT
BRANCH   3  11
ATOM     11  C   LIG    1       -1.269   2.114   0.020  0.00  0.00    -0.150 A 
ATOM     12  C   LIG    1       -2.306   1.935  -0.823  0.00  0.00    +0.050 A 
ATOM     13  C   LIG    1       -3.371   2.790  -0.615  0.00  0.00    +0.020 A 
ATOM     14  C   LIG    1       -3.207   3.666   0.379  0.00  0.00    -0.050 A 
ATOM     15  S   LIG    1       -1.634   3.430   1.128  0.00  0.00    +0.180 S 
ENDBRANCH   3  11
BRANCH   1  16
ATOM     16  S   LIG    1        0.444   4.577   0.022  0.00  0.00    +0.040 S 
BRANCH  16  17
ATOM     17  C   LIG    1        1.500   6.047   0.019  0.00  0.00    +0.120 C 
BRANCH  17  23
ATOM     18  C   LIG    1       -2.160   9.046  -4.653  0.00  0.00    +0.110 C 
ATOM     19  C   LIG    1       -1.425   8.585  -3.421  0.00  0.00    -0.020 A 
ATOM     20  C   LIG    1       -0.643   7.441  -3.475  0.00  0.00    +0.000 A 
ATOM     21  C   LIG    1        0.030   7.007  -2.368  0.00  0.00    +0.090 A 
ATOM     22  C   LIG    1       -0.070   7.723  -1.171  0.00  0.00    -0.160 A 
ATOM     23  C   LIG    1        0.640   7.284   0.035  0.00  0.00    +0.040 A 
ATOM     24  C   LIG    1        0.496   8.020   1.166  0.00  0.00    -0.060 A 
ATOM     25  C   LIG    1       -0.313   9.177   1.153  0.00  0.00    +0.510 A 
ATOM     26  O   LIG    1       -0.959   9.572   0.045  0.00  0.00    -0.270 OA
ATOM     27  O   LIG    1       -0.430   9.831   2.173  0.00  0.00    -0.460 OA
ATOM     28  C   LIG    1       -0.862   8.883  -1.111  0.00  0.00    +0.150 A 
ATOM     29  C   LIG    1       -1.538   9.305  -2.249  0.00  0.00    +0.010 A 
ENDBRANCH  17  23
ENDBRANCH  16  17
ENDBRANCH   1  16
TORSDOF 4
