REMARK  Name = ZINCnE000001TAPh.0
REMARK                            x       y       z     vdW  Elec       q    Type
REMARK                         _______ _______ _______ _____ _____    ______ ____
ROOT
ATOM      1  C   LIG    1       -7.348   4.059   0.515  0.00  0.00    -0.110 C 
ATOM      2  C   LIG    1       -7.254   5.374  -0.269  0.00  0.00    +0.260 C 
ATOM      3  O   LIG    1       -6.040   6.031   0.097  0.00  0.00    -0.320 OA
ATOM      4  C   LIG    1       -4.893   5.304   0.076  0.00  0.00    +0.160 A 
ATOM      5  C   LIG    1       -3.678   5.984   0.067  0.00  0.00    -0.030 A 
ATOM      6  C   LIG    1       -2.490   5.288   0.056  0.00  0.00    +0.060 A 
ATOM      7  C   LIG    1       -2.503   3.894   0.044  0.00  0.00    -0.120 A 
ATOM      8  C   LIG    1       -3.719   3.215   0.052  0.00  0.00    +0.070 A 
ATOM      9  C   LIG    1       -4.909   3.918   0.066  0.00  0.00    -0.150 A 
ATOM     10  C   LIG    1       -6.205   3.147   0.064  0.00  0.00    +0.100 C 
ENDROOT
BRANCH   7  11
ATOM     11  C   LIG    1       -1.228   3.138   0.029  0.00  0.00    +0.030 A 
ATOM     12  C   LIG    1       -1.222   1.740   0.017  0.00  0.00    +0.010 A 
ATOM     13  C   LIG    1       -0.013   1.076   0.008  0.00  0.00    +0.280 A 
ATOM     14  N   LIG    1        1.126   1.742   0.001  0.00  0.00    -0.460 NA
ATOM     15  C   LIG    1        1.165   3.061   0.007  0.00  0.00    +0.040 A 
ATOM     16  C   LIG    1        0.002   3.803   0.021  0.00  0.00    +0.020 A 
BRANCH  15  17
ATOM     17  C   LIG    1        2.497   3.766  -0.002  0.00  0.00    +0.520 C 
ATOM     18  F   LIG    1        2.659   4.471   1.196  0.00  0.00    -0.170 F 
ATOM     19  F   LIG    1        2.545   4.658  -1.078  0.00  0.00    -0.170 F 
ATOM     20  F   LIG    1        3.522   2.823  -0.131  0.00  0.00    -0.160 F 
ENDBRANCH  15  17
ENDBRANCH   7  11
BRANCH   1  22
ATOM     21  O   LIG    1       -9.468   3.918  -0.524  0.00  0.00    -0.690 OA
ATOM     22  C   LIG    1       -8.670   3.393   0.234  0.00  0.00    +0.500 C 
ATOM     23  O   LIG    1       -8.942   2.329   0.764  0.00  0.00    -0.690 OA
ENDBRANCH   1  22
TORSDOF 3
