REMARK  Name = ZINCpk000000nxuh.0
REMARK                            x       y       z     vdW  Elec       q    Type
REMARK                         _______ _______ _______ _____ _____    ______ ____
ROOT
ATOM      1  C   LIG    1       -0.685   1.664  -1.232  0.00  0.00    +0.260 C 
ATOM      2  C   LIG    1        0.229   1.600  -2.425  0.00  0.00    +0.520 C 
ATOM      3  N   LIG    1        0.162   0.632  -3.340  0.00  0.00    -0.720 N 
ATOM      4  H   LIG    1        0.830   0.630  -4.044  0.00  0.00    +0.400 HD
ATOM      5  C   LIG    1       -0.843  -0.422  -3.357  0.00  0.00    +0.250 C 
ATOM      6  C   LIG    1       -1.452  -0.614  -1.967  0.00  0.00    +0.290 C 
ATOM      7  O   LIG    1        1.064   2.469  -2.561  0.00  0.00    -0.540 OA
ATOM      8  N   LIG    1       -1.791   0.714  -1.427  0.00  0.00    -0.610 N 
ATOM      9  C   LIG    1       -3.062   1.045  -1.124  0.00  0.00    +0.520 C 
ATOM     10  O   LIG    1       -3.312   2.145  -0.680  0.00  0.00    -0.510 OA
ENDROOT
BRANCH   1  11
ATOM     11  C   LIG    1        0.094   1.291   0.031  0.00  0.00    +0.040 C 
BRANCH  11  13
ATOM     12  C   LIG    1       -0.077   0.964   2.502  0.00  0.00    +0.020 C 
ATOM     13  C   LIG    1       -0.801   1.480   1.258  0.00  0.00    -0.020 C 
ATOM     14  C   LIG    1       -1.120   2.966   1.432  0.00  0.00    +0.020 C 
ENDBRANCH  11  13
ENDBRANCH   1  11
BRANCH   9  15
ATOM     15  C   LIG    1       -4.171   0.047  -1.336  0.00  0.00    +0.130 C 
BRANCH  15  16
ATOM     16  C   LIG    1       -5.484   0.660  -0.922  0.00  0.00    +0.160 A 
ATOM     17  C   LIG    1       -6.250   1.240  -1.859  0.00  0.00    -0.030 A 
ATOM     18  C   LIG    1       -7.529   1.840  -1.473  0.00  0.00    +0.010 A 
ATOM     19  C   LIG    1       -8.367   2.457  -2.402  0.00  0.00    +0.010 A 
ATOM     20  C   LIG    1       -9.551   3.002  -1.989  0.00  0.00    +0.050 A 
ATOM     21  C   LIG    1       -9.932   2.950  -0.654  0.00  0.00    -0.010 A 
ATOM     22  C   LIG    1       -9.124   2.348   0.286  0.00  0.00    +0.090 A 
ATOM     23  C   LIG    1       -7.912   1.785  -0.113  0.00  0.00    -0.150 A 
ATOM     24  C   LIG    1       -7.008   1.130   0.839  0.00  0.00    +0.550 A 
ATOM     25  O   LIG    1       -7.301   1.060   2.019  0.00  0.00    -0.530 OA
ATOM     26  N   LIG    1       -5.853   0.600   0.391  0.00  0.00    -0.620 N 
ATOM     27  H   LIG    1       -5.261   0.165   1.025  0.00  0.00    +0.410 HD
ENDBRANCH  15  16
ENDBRANCH   9  15
TORSDOF 4
