REMARK  Name = ZINCqH0000002OTL.0
REMARK                            x       y       z     vdW  Elec       q    Type
REMARK                         _______ _______ _______ _____ _____    ______ ____
ROOT
ATOM      1  C   LIG    1        2.421   1.183  -0.009  0.00  0.00    +0.270 C 
ENDROOT
BRANCH   1   2
ATOM      2  N   LIG    1        1.143   1.900   0.004  0.00  0.00    -0.730 N 
ATOM      3  H   LIG    1        1.131   2.870   0.002  0.00  0.00    +0.410 HD
ATOM      4  C   LIG    1       -0.016   1.211   0.017  0.00  0.00    +0.710 C 
ATOM      5  N   LIG    1       -1.191   1.871   0.023  0.00  0.00    -0.740 N 
ATOM      6  H   LIG    1       -1.203   2.840   0.022  0.00  0.00    +0.400 HD
ATOM      7  O   LIG    1       -0.000  -0.004   0.019  0.00  0.00    -0.580 OA
BRANCH   5   8
ATOM      8  C   LIG    1       -2.450   1.122   0.032  0.00  0.00    +0.340 C 
BRANCH   8   9
ATOM      9  C   LIG    1       -3.608   2.087   0.037  0.00  0.00    -0.120 A 
ATOM     10  C   LIG    1       -4.135   2.527   1.237  0.00  0.00    +0.070 A 
ATOM     11  C   LIG    1       -5.193   3.416   1.243  0.00  0.00    -0.020 A 
ATOM     12  C   LIG    1       -5.733   3.857   0.047  0.00  0.00    +0.110 A 
ATOM     13  C   LIG    1       -5.208   3.411  -1.154  0.00  0.00    -0.020 A 
ATOM     14  F   LIG    1       -6.771   4.721   0.052  0.00  0.00    -0.140 F 
ATOM     15  C   LIG    1       -4.146   2.527  -1.158  0.00  0.00    +0.070 A 
ENDBRANCH   8   9
ENDBRANCH   5   8
ENDBRANCH   1   2
BRANCH   1  16
ATOM     16  C   LIG    1        3.495   2.062   0.579  0.00  0.00    +0.510 C 
ATOM     17  N   LIG    1        4.761   1.609   0.670  0.00  0.00    -0.670 N 
ATOM     18  H   LIG    1        4.968   0.695   0.420  0.00  0.00    +0.410 HD
ATOM     19  O   LIG    1        3.220   3.177   0.969  0.00  0.00    -0.510 OA
BRANCH  17  20
ATOM     20  C   LIG    1        5.777   2.457   1.125  0.00  0.00    +0.130 A 
ATOM     21  C   LIG    1        7.058   2.354   0.598  0.00  0.00    -0.010 A 
ATOM     22  C   LIG    1        8.057   3.195   1.046  0.00  0.00    +0.030 A 
ATOM     23  C   LIG    1        7.785   4.134   2.025  0.00  0.00    -0.100 A 
ATOM     24  C   LIG    1        6.512   4.236   2.554  0.00  0.00    +0.030 A 
ATOM     25  C   LIG    1        8.879   5.047   2.515  0.00  0.00    +0.090 C 
ATOM     26  C   LIG    1        5.507   3.401   2.107  0.00  0.00    +0.020 A 
ENDBRANCH  17  20
ENDBRANCH   1  16
BRANCH   1  27
ATOM     27  C   LIG    1        2.789   0.822  -1.449  0.00  0.00    +0.020 C 
BRANCH  27  29
ATOM     28  C   LIG    1        2.131  -0.531  -3.444  0.00  0.00    +0.010 C 
ATOM     29  C   LIG    1        1.764  -0.169  -2.004  0.00  0.00    +0.030 C 
ENDBRANCH  27  29
ENDBRANCH   1  27
TORSDOF 7
