REMARK  Name = ZINCpe000000UPmP.0
REMARK                            x       y       z     vdW  Elec       q    Type
REMARK                         _______ _______ _______ _____ _____    ______ ____
ROOT
ATOM      1  C   LIG    1        0.044   5.077  -1.347  0.00  0.00    +0.520 C 
ATOM      2  N   LIG    1        0.933   4.956  -2.353  0.00  0.00    -0.720 N 
ATOM      3  H   LIG    1        1.665   4.325  -2.280  0.00  0.00    +0.400 HD
ATOM      4  O   LIG    1       -0.872   5.866  -1.438  0.00  0.00    -0.520 OA
ENDROOT
BRANCH   1   8
ATOM      5  C   LIG    1       -3.406   4.956   0.549  0.00  0.00    +0.300 C 
ATOM      6  N   LIG    1       -2.222   4.110   0.374  0.00  0.00    -0.600 N 
ATOM      7  C   LIG    1       -0.929   4.573   0.872  0.00  0.00    +0.310 C 
ATOM      8  C   LIG    1        0.189   4.230  -0.109  0.00  0.00    +0.040 C 
ATOM      9  C   LIG    1        0.117   2.774  -0.488  0.00  0.00    -0.050 A 
ATOM     10  C   LIG    1        1.264   2.063  -0.769  0.00  0.00    +0.010 A 
ATOM     11  C   LIG    1        1.178   0.734  -1.147  0.00  0.00    +0.040 A 
ATOM     12  C   LIG    1       -0.054   0.112  -1.246  0.00  0.00    +0.010 A 
ATOM     13  C   LIG    1       -1.210   0.814  -0.967  0.00  0.00    +0.090 A 
ATOM     14  C   LIG    1       -1.128   2.148  -0.574  0.00  0.00    -0.120 A 
ATOM     15  C   LIG    1       -2.344   2.919  -0.242  0.00  0.00    +0.560 C 
ATOM     16  O   LIG    1       -3.443   2.483  -0.523  0.00  0.00    -0.530 OA
ENDBRANCH   1   8
BRANCH   2  17
ATOM     17  C   LIG    1        0.792   5.779  -3.557  0.00  0.00    +0.280 C 
BRANCH  17  18
ATOM     18  C   LIG    1        1.990   5.544  -4.479  0.00  0.00    +0.010 C 
ATOM     19  C   LIG    1        1.700   5.211  -5.944  0.00  0.00    +0.070 C 
ATOM     20  C   LIG    1        2.213   4.122  -4.998  0.00  0.00    +0.060 C 
BRANCH  18  21
ATOM     21  N   LIG    1        3.180   6.356  -4.191  0.00  0.00    -0.490 NA
ATOM     22  C   LIG    1        3.654   6.128  -2.818  0.00  0.00    +0.150 C 
ATOM     23  C   LIG    1        4.926   6.945  -2.580  0.00  0.00    +0.220 C 
ATOM     24  O   LIG    1        4.655   8.326  -2.837  0.00  0.00    -0.380 OA
ATOM     25  C   LIG    1        4.192   8.584  -4.166  0.00  0.00    +0.220 C 
ATOM     26  C   LIG    1        2.912   7.783  -4.420  0.00  0.00    +0.160 C 
ENDBRANCH  18  21
ENDBRANCH  17  18
ENDBRANCH   2  17
TORSDOF 4
