REMARK  Name = ZINCvU0000000E10.0
REMARK                            x       y       z     vdW  Elec       q    Type
REMARK                         _______ _______ _______ _____ _____    ______ ____
ROOT
ATOM      1  C   LIG    1        4.158   0.554   1.380  0.00  0.00    +0.510 C 
ATOM      2  N   LIG    1        5.484   0.496   1.612  0.00  0.00    -0.610 N 
ATOM      3  O   LIG    1        3.385   0.676   2.307  0.00  0.00    -0.510 OA
ENDROOT
BRANCH   2   4
ATOM      4  C   LIG    1        6.418   0.349   0.493  0.00  0.00    +0.230 C 
ATOM      5  C   LIG    1        7.225  -0.939   0.668  0.00  0.00    +0.040 C 
ATOM      6  C   LIG    1        7.369   1.547   0.462  0.00  0.00    +0.030 C 
ENDBRANCH   2   4
BRANCH   1   7
ATOM      7  C   LIG    1        3.635   0.467  -0.031  0.00  0.00    +0.150 C 
BRANCH   7  12
ATOM      8  C   LIG    1       -0.729   3.634   0.029  0.00  0.00    +0.150 A 
ATOM      9  C   LIG    1        0.597   4.056   0.019  0.00  0.00    -0.070 A 
ATOM     10  C   LIG    1        1.614   3.142   0.004  0.00  0.00    +0.100 A 
ATOM     11  C   LIG    1        1.320   1.780  -0.001  0.00  0.00    -0.150 A 
ATOM     12  C   LIG    1        2.131   0.556  -0.015  0.00  0.00    -0.160 A 
ATOM     13  C   LIG    1        1.265  -0.466  -0.013  0.00  0.00    +0.230 A 
ATOM     14  O   LIG    1        0.002  -0.004   0.002  0.00  0.00    -0.190 OA
ATOM     15  C   LIG    1       -0.016   1.344   0.009  0.00  0.00    +0.090 A 
ATOM     16  C   LIG    1       -1.037   2.285   0.029  0.00  0.00    -0.010 A 
BRANCH   8  18
ATOM     17  C   LIG    1       -1.344   5.930   0.050  0.00  0.00    +0.250 C 
ATOM     18  O   LIG    1       -1.729   4.554   0.045  0.00  0.00    -0.310 OA
ENDBRANCH   8  18
ENDBRANCH   7  12
ENDBRANCH   1   7
BRANCH   2  19
ATOM     19  C   LIG    1        5.992   0.581   2.984  0.00  0.00    +0.460 C 
BRANCH  19  20
ATOM     20  C   LIG    1        6.085  -0.804   3.571  0.00  0.00    +0.140 A 
ATOM     21  N   LIG    1        7.117  -1.598   3.512  0.00  0.00    -0.270 NA
ATOM     22  N   LIG    1        6.847  -2.700   4.119  0.00  0.00    -0.270 NA
ATOM     23  C   LIG    1        5.623  -2.647   4.589  0.00  0.00    +0.200 A 
ATOM     24  O   LIG    1        5.120  -1.442   4.256  0.00  0.00    -0.180 OA
BRANCH  23  25
ATOM     25  C   LIG    1        4.929  -3.708   5.349  0.00  0.00    -0.000 A 
ATOM     26  C   LIG    1        5.579  -4.910   5.628  0.00  0.00    +0.090 A 
ATOM     27  C   LIG    1        4.926  -5.896   6.338  0.00  0.00    +0.030 A 
ATOM     28  C   LIG    1        3.628  -5.695   6.773  0.00  0.00    +0.050 A 
ATOM     29  C   LIG    1        2.976  -4.506   6.500  0.00  0.00    +0.050 A 
ATOM     30  C   LIG    1        3.620  -3.509   5.796  0.00  0.00    -0.070 A 
ATOM     31 BR   LIG    1        2.731  -1.881   5.430  0.00  0.00    -0.010 Br
ENDBRANCH  23  25
ENDBRANCH  19  20
ENDBRANCH   2  19
TORSDOF 7
