REMARK  Name = ZINCpe00000VRkfI.0
REMARK                            x       y       z     vdW  Elec       q    Type
REMARK                         _______ _______ _______ _____ _____    ______ ____
ROOT
ATOM      1  C   LIG    1        2.831   5.507  -0.091  0.00  0.00    +0.520 C 
ATOM      2  N   LIG    1        3.985   6.184   0.071  0.00  0.00    -0.660 N 
ATOM      3  H   LIG    1        4.782   5.719   0.368  0.00  0.00    +0.430 HD
ATOM      4  O   LIG    1        1.811   6.104  -0.364  0.00  0.00    -0.520 OA
ENDROOT
BRANCH   2   5
ATOM      5  C   LIG    1        4.032   7.552  -0.186  0.00  0.00    +0.220 A 
ATOM      6  C   LIG    1        3.128   8.127  -1.069  0.00  0.00    +0.000 A 
ATOM      7  C   LIG    1        3.175   9.483  -1.322  0.00  0.00    +0.070 A 
ATOM      8  C   LIG    1        4.123  10.280  -0.701  0.00  0.00    -0.020 A 
ATOM      9  C   LIG    1        5.029   9.726   0.179  0.00  0.00    +0.070 A 
ATOM     10  C   LIG    1        4.989   8.357   0.450  0.00  0.00    -0.190 A 
BRANCH  10  11
ATOM     11  C   LIG    1        5.951   7.759   1.395  0.00  0.00    +0.570 C 
ATOM     12  O   LIG    1        5.976   6.554   1.556  0.00  0.00    -0.550 OA
ATOM     13  N   LIG    1        6.803   8.548   2.079  0.00  0.00    -0.850 N 
ATOM     14  H   LIG    1        7.436   8.155   2.700  0.00  0.00    +0.410 HD
ATOM     15  H   LIG    1        6.783   9.510   1.950  0.00  0.00    +0.400 HD
ENDBRANCH  10  11
ENDBRANCH   2   5
BRANCH   1  16
ATOM     16  C   LIG    1        2.808   4.008   0.066  0.00  0.00    +0.060 C 
BRANCH  16  17
ATOM     17  C   LIG    1        1.387   3.492  -0.169  0.00  0.00    +0.210 C 
BRANCH  17  22
ATOM     18  C   LIG    1        0.410  -1.404   1.956  0.00  0.00    +0.650 C 
ATOM     19  N   LIG    1        0.858  -0.478   1.085  0.00  0.00    -0.600 N 
ATOM     20  C   LIG    1        0.008  -0.007  -0.020  0.00  0.00    +0.310 C 
ATOM     21  C   LIG    1       -0.014   1.525   0.002  0.00  0.00    +0.180 C 
ATOM     22  N   LIG    1        1.365   2.031  -0.016  0.00  0.00    -0.540 NA
ATOM     23  C   LIG    1        2.100   1.617   1.187  0.00  0.00    +0.170 C 
ATOM     24  C   LIG    1        2.209   0.089   1.214  0.00  0.00    +0.300 C 
ATOM     25  O   LIG    1       -0.709  -1.861   1.834  0.00  0.00    -0.570 OA
BRANCH  18  26
ATOM     26  O   LIG    1        1.203  -1.822   2.960  0.00  0.00    -0.370 OA
BRANCH  26  28
ATOM     27  C   LIG    1        1.693  -3.170   4.928  0.00  0.00    +0.070 C 
ATOM     28  C   LIG    1        0.655  -2.821   3.860  0.00  0.00    +0.220 C 
ENDBRANCH  26  28
ENDBRANCH  18  26
ENDBRANCH  17  22
ENDBRANCH  16  17
ENDBRANCH   1  16
TORSDOF 7
