REMARK  Name = ZINCqH0000036xFp.0
REMARK                            x       y       z     vdW  Elec       q    Type
REMARK                         _______ _______ _______ _____ _____    ______ ____
ROOT
ATOM      1  N   LIG    1        2.380   1.098  -0.028  0.00  0.00    -0.550 N 
ATOM      2  C   LIG    1        2.537  -0.357   0.089  0.00  0.00    +0.320 C 
ATOM      3  C   LIG    1        3.970  -0.657  -0.409  0.00  0.00    +0.010 C 
ATOM      4  C   LIG    1        4.685   0.685  -0.131  0.00  0.00    +0.100 C 
ATOM      5  C   LIG    1        3.572   1.709  -0.143  0.00  0.00    +0.520 C 
ATOM      6  O   LIG    1        3.731   2.907  -0.244  0.00  0.00    -0.500 OA
ENDROOT
BRANCH   3   7
ATOM      7  C   LIG    1        3.979  -0.978  -1.881  0.00  0.00    +0.530 C 
ATOM      8  N   LIG    1        5.142  -1.257  -2.503  0.00  0.00    -0.550 N 
ATOM      9  C   LIG    1        6.380  -1.388  -1.866  0.00  0.00    +0.140 A 
ATOM     10  C   LIG    1        6.695  -1.270  -0.511  0.00  0.00    -0.030 A 
ATOM     11  C   LIG    1        7.995  -1.438  -0.082  0.00  0.00    +0.050 A 
ATOM     12  C   LIG    1        8.996  -1.726  -0.991  0.00  0.00    -0.010 A 
ATOM     13  C   LIG    1        8.691  -1.845  -2.334  0.00  0.00    +0.060 A 
ATOM     14  C   LIG    1        7.391  -1.677  -2.769  0.00  0.00    -0.130 A 
ATOM     15  C   LIG    1        6.791  -1.751  -4.155  0.00  0.00    +0.100 C 
ATOM     16  C   LIG    1        5.294  -1.474  -3.944  0.00  0.00    +0.220 C 
ATOM     17  C   LIG    1        4.460  -2.677  -4.390  0.00  0.00    +0.050 C 
ATOM     18  O   LIG    1        2.940  -0.986  -2.507  0.00  0.00    -0.500 OA
ENDBRANCH   3   7
BRANCH   1  23
ATOM     19  C   LIG    1       -0.114   3.806  -0.004  0.00  0.00    -0.060 A 
ATOM     20  C   LIG    1       -1.294   3.072   0.012  0.00  0.00    -0.030 A 
ATOM     21  C   LIG    1       -1.250   1.691   0.009  0.00  0.00    +0.060 A 
ATOM     22  C   LIG    1       -0.034   1.036   0.001  0.00  0.00    -0.030 A 
ATOM     23  C   LIG    1        1.149   1.763  -0.015  0.00  0.00    +0.190 A 
ATOM     24  C   LIG    1        1.110   3.150  -0.017  0.00  0.00    +0.020 A 
BRANCH  19  26
ATOM     25  C   LIG    1       -1.949   5.919   0.015  0.00  0.00    +0.130 C 
ATOM     26  S   LIG    1       -0.170   5.567  -0.006  0.00  0.00    -0.110 S 
ENDBRANCH  19  26
ENDBRANCH   1  23
TORSDOF 3
