REMARK  Name = ZINCrD00000hQ5jU.0
REMARK                            x       y       z     vdW  Elec       q    Type
REMARK                         _______ _______ _______ _____ _____    ______ ____
ROOT
ATOM      1  S   LIG    1       -0.017   1.417   0.010  0.00  0.00    +2.710 S 
ATOM      2  O   LIG    1        1.162   2.210   0.003  0.00  0.00    -0.940 OA
ATOM      3  O   LIG    1        0.002  -0.004   0.002  0.00  0.00    -0.930 OA
ENDROOT
BRANCH   1   4
ATOM      4  C   LIG    1       -0.957   1.909  -1.397  0.00  0.00    -0.690 A 
ATOM      5  C   LIG    1       -0.468   2.880  -2.250  0.00  0.00    +0.170 A 
ATOM      6  C   LIG    1       -1.202   3.263  -3.357  0.00  0.00    -0.010 A 
ATOM      7  C   LIG    1       -2.433   2.685  -3.607  0.00  0.00    +0.120 A 
ATOM      8  C   LIG    1       -2.929   1.717  -2.754  0.00  0.00    -0.070 A 
ATOM      9  C   LIG    1       -2.191   1.327  -1.646  0.00  0.00    +0.200 A 
BRANCH   9  10
ATOM     10  O   LIG    1       -2.677   0.376  -0.806  0.00  0.00    -0.310 OA
BRANCH  10  11
ATOM     11  C   LIG    1       -3.955  -0.180  -1.124  0.00  0.00    +0.610 C 
ATOM     12  F   LIG    1       -4.915   0.837  -1.137  0.00  0.00    -0.160 F 
ATOM     13  F   LIG    1       -4.300  -1.135  -0.163  0.00  0.00    -0.120 F 
ATOM     14  F   LIG    1       -3.899  -0.785  -2.384  0.00  0.00    -0.160 F 
ENDBRANCH  10  11
ENDBRANCH   9  10
ENDBRANCH   1   4
BRANCH   1  18
ATOM     15  C   LIG    1       -2.118   3.333   2.783  0.00  0.00    +0.160 C 
ATOM     16  C   LIG    1       -2.424   1.877   3.222  0.00  0.00    +0.030 C 
ATOM     17  C   LIG    1       -1.872   1.039   2.049  0.00  0.00    +0.270 C 
ATOM     18  N   LIG    1       -0.875   1.865   1.354  0.00  0.00    -1.010 NA
ATOM     19  C   LIG    1       -0.760   3.157   2.055  0.00  0.00    +0.310 C 
BRANCH  15  20
ATOM     20  O   LIG    1       -1.982   4.192   3.917  0.00  0.00    -0.370 OA
BRANCH  20  21
ATOM     21  C   LIG    1       -3.200   4.823   4.317  0.00  0.00    +0.280 C 
BRANCH  21  25
ATOM     22  C   LIG    1       -4.482   7.992   7.914  0.00  0.00    +0.180 C 
ATOM     23  C   LIG    1       -3.545   7.121   7.118  0.00  0.00    +0.050 A 
ATOM     24  N   LIG    1       -3.887   6.411   6.096  0.00  0.00    -0.470 NA
ATOM     25  C   LIG    1       -2.941   5.700   5.515  0.00  0.00    +0.060 A 
ATOM     26  C   LIG    1       -1.733   5.826   6.071  0.00  0.00    -0.050 A 
ATOM     27  S   LIG    1       -1.875   6.936   7.432  0.00  0.00    +0.120 S 
ENDBRANCH  21  25
ENDBRANCH  20  21
ENDBRANCH  15  20
ENDBRANCH   1  18
TORSDOF 7
