REMARK  Name = ZINCbw0000001N0u.0
REMARK                            x       y       z     vdW  Elec       q    Type
REMARK                         _______ _______ _______ _____ _____    ______ ____
ROOT
ATOM      1  C   LIG    1        2.578   1.323  -0.015  0.00  0.00    +0.420 A 
ATOM      2  N   LIG    1        3.515   2.212  -0.020  0.00  0.00    -0.530 NA
ATOM      3  S   LIG    1        2.812   3.753  -0.005  0.00  0.00    +0.230 S 
ATOM      4  C   LIG    1        1.137   3.199   0.008  0.00  0.00    -0.110 A 
ATOM      5  C   LIG    1       -0.086   3.857   0.024  0.00  0.00    -0.060 A 
ATOM      6  C   LIG    1       -1.254   3.124   0.032  0.00  0.00    +0.110 A 
ATOM      7  C   LIG    1       -1.202   1.736   0.017  0.00  0.00    +0.020 A 
ATOM      8  C   LIG    1       -0.013   1.076   0.008  0.00  0.00    +0.110 A 
ATOM      9 BR   LIG    1       -0.150   5.747   0.034  0.00  0.00    -0.030 Br
ATOM     10  C   LIG    1        1.202   1.793   0.000  0.00  0.00    -0.150 A 
ENDROOT
BRANCH   1  11
ATOM     11  N   LIG    1        2.876  -0.041  -0.025  0.00  0.00    -0.830 N 
ATOM     12  H   LIG    1        3.800  -0.335  -0.036  0.00  0.00    +0.410 HD
ATOM     13  H   LIG    1        2.158  -0.694  -0.021  0.00  0.00    +0.410 HD
ENDBRANCH   1  11
TORSDOF 1
