REMARK  Name = ZINCpe000000YVam.0
REMARK                            x       y       z     vdW  Elec       q    Type
REMARK                         _______ _______ _______ _____ _____    ______ ____
ROOT
ATOM      1  O   LIG    1       -2.279  -3.053   2.100  0.00  0.00    -0.340 OA
ENDROOT
BRANCH   1   3
ATOM      2  O   LIG    1       -2.127  -4.281   3.931  0.00  0.00    -0.500 OA
ATOM      3  C   LIG    1       -2.587  -3.308   3.381  0.00  0.00    +0.460 C 
BRANCH   3   4
ATOM      4  C   LIG    1       -3.507  -2.382   4.133  0.00  0.00    +0.370 C 
BRANCH   4   5
ATOM      5  N   LIG    1       -3.685  -2.875   5.501  0.00  0.00    -0.720 N 
ATOM      6  H   LIG    1       -3.236  -3.686   5.787  0.00  0.00    +0.420 HD
ATOM      7  C   LIG    1       -4.473  -2.202   6.363  0.00  0.00    +0.610 C 
ATOM      8  O   LIG    1       -5.036  -1.184   6.005  0.00  0.00    -0.510 OA
BRANCH   7   9
ATOM      9  C   LIG    1       -4.651  -2.696   7.733  0.00  0.00    -0.090 A 
ATOM     10  C   LIG    1       -5.412  -2.111   8.704  0.00  0.00    +0.050 A 
ATOM     11  C   LIG    1       -5.296  -2.917   9.847  0.00  0.00    -0.070 A 
ATOM     12  C   LIG    1       -4.473  -3.941   9.530  0.00  0.00    +0.210 A 
ATOM     13  O   LIG    1       -4.087  -3.804   8.255  0.00  0.00    -0.160 OA
ENDBRANCH   7   9
ENDBRANCH   4   5
ENDBRANCH   3   4
ENDBRANCH   1   3
BRANCH   1  14
ATOM     14  C   LIG    1       -1.387  -3.988   1.438  0.00  0.00    +0.230 C 
BRANCH  14  15
ATOM     15  C   LIG    1       -1.153  -3.535  -0.005  0.00  0.00    +0.340 C 
BRANCH  15  16
ATOM     16  N   LIG    1       -0.442  -2.255  -0.006  0.00  0.00    -0.580 N 
ATOM     17  C   LIG    1       -1.042  -1.051   0.006  0.00  0.00    +0.580 C 
ATOM     18  C   LIG    1        0.002  -0.004   0.002  0.00  0.00    -0.140 A 
ATOM     19  C   LIG    1       -0.017   1.381   0.010  0.00  0.00    +0.100 A 
ATOM     20  C   LIG    1        1.178   2.085   0.002  0.00  0.00    +0.050 A 
ATOM     21  C   LIG    1        2.386   1.414  -0.012  0.00  0.00    +0.040 A 
ATOM     22  C   LIG    1        2.420   0.028  -0.020  0.00  0.00    +0.100 A 
ATOM     23  C   LIG    1        1.234  -0.689  -0.013  0.00  0.00    -0.140 A 
ATOM     24  O   LIG    1       -2.240  -0.856   0.020  0.00  0.00    -0.440 OA
ATOM     25  C   LIG    1        0.898  -2.128  -0.018  0.00  0.00    +0.570 C 
ATOM     26  O   LIG    1        1.696  -3.043  -0.031  0.00  0.00    -0.460 OA
ENDBRANCH  15  16
ENDBRANCH  14  15
ENDBRANCH   1  14
TORSDOF 7
