REMARK  Name = ZINCtj00001n1k1E.1
REMARK                            x       y       z     vdW  Elec       q    Type
REMARK                         _______ _______ _______ _____ _____    ______ ____
ROOT
ATOM      1  C   LIG    1        0.002  -0.004   0.002  0.00  0.00    +0.610 C 
ATOM      2  N   LIG    1       -0.027   1.321  -0.242  0.00  0.00    -0.620 N 
ATOM      3  C   LIG    1        1.207   2.123  -0.211  0.00  0.00    +0.330 C 
ATOM      4  C   LIG    1        1.276   2.949  -1.505  0.00  0.00    +0.250 C 
ATOM      5  N   LIG    1        0.045   3.737  -1.646  0.00  0.00    -0.380 N 
ATOM      6  C   LIG    1       -1.106   2.841  -1.812  0.00  0.00    +0.250 C 
ATOM      7  H   LIG    1       -0.087   4.302  -0.821  0.00  0.00    +0.420 HD
ATOM      8  C   LIG    1       -1.293   2.008  -0.539  0.00  0.00    +0.330 C 
ATOM      9  O   LIG    1        1.068  -0.577   0.123  0.00  0.00    -0.510 OA
ENDROOT
BRANCH   1  12
ATOM     10  C   LIG    1       -3.488  -0.928   0.249  0.00  0.00    +0.270 A 
ATOM     11  N   LIG    1       -2.451  -0.160   0.141  0.00  0.00    -0.490 NA
ATOM     12  C   LIG    1       -1.256  -0.758   0.121  0.00  0.00    +0.020 A 
ATOM     13  C   LIG    1       -1.289  -2.105   0.213  0.00  0.00    +0.020 A 
ATOM     14  S   LIG    1       -2.973  -2.608   0.341  0.00  0.00    +0.120 S 
BRANCH  10  19
ATOM     15  C   LIG    1       -6.423   1.047   1.287  0.00  0.00    +0.190 C 
ATOM     16  C   LIG    1       -7.431  -0.098   1.413  0.00  0.00    +0.060 C 
ATOM     17  C   LIG    1       -7.169  -1.123   0.307  0.00  0.00    +0.190 C 
ATOM     18  C   LIG    1       -5.728  -1.626   0.414  0.00  0.00    +0.190 C 
ATOM     19  N   LIG    1       -4.802  -0.493   0.286  0.00  0.00    -0.420 N 
ATOM     20  C   LIG    1       -5.003   0.482   1.366  0.00  0.00    +0.190 C 
BRANCH  15  22
ATOM     21  C   LIG    1       -6.284   3.327   2.014  0.00  0.00    +0.210 C 
ATOM     22  O   LIG    1       -6.626   1.980   2.350  0.00  0.00    -0.380 OA
ENDBRANCH  15  22
BRANCH  17  23
ATOM     23  O   LIG    1       -7.366  -0.510  -0.969  0.00  0.00    -0.370 OA
ATOM     24  C   LIG    1       -7.810  -1.411  -1.985  0.00  0.00    +0.210 C 
ENDBRANCH  17  23
ENDBRANCH  10  19
ENDBRANCH   1  12
BRANCH   5  25
ATOM     25  C   LIG    1        0.159   4.609  -2.822  0.00  0.00    +0.250 C 
BRANCH  25  26
ATOM     26  C   LIG    1        1.428   5.457  -2.708  0.00  0.00    +0.030 C 
BRANCH  26  27
ATOM     27  C   LIG    1        1.546   6.365  -3.933  0.00  0.00    +0.050 C 
BRANCH  27  28
ATOM     28  C   LIG    1        2.815   7.213  -3.819  0.00  0.00    +0.020 C 
BRANCH  28  29
ATOM     29  C   LIG    1        2.933   8.121  -5.044  0.00  0.00    +0.170 C 
BRANCH  29  30
ATOM     30  O   LIG    1        4.118   8.913  -4.938  0.00  0.00    -0.580 OA
ATOM     31  H   LIG    1        4.258   9.514  -5.682  0.00  0.00    +0.390 HD
ENDBRANCH  29  30
ENDBRANCH  28  29
ENDBRANCH  27  28
ENDBRANCH  26  27
ENDBRANCH  25  26
ENDBRANCH   5  25
TORSDOF 10
