REMARK  Name = ZINCpk00000eb0qr.0
REMARK                            x       y       z     vdW  Elec       q    Type
REMARK                         _______ _______ _______ _____ _____    ______ ____
ROOT
ATOM      1  C   LIG    1        1.802   1.640  -3.921  0.00  0.00    +0.190 C 
ATOM      2  C   LIG    1        3.124   2.111  -3.312  0.00  0.00    +0.070 C 
ENDROOT
BRANCH   1   5
ATOM      3  N   LIG    1        2.860   0.747  -5.971  0.00  0.00    -0.670 N 
ATOM      4  H   LIG    1        3.203   1.637  -6.146  0.00  0.00    +0.420 HD
ATOM      5  C   LIG    1        2.068   0.527  -4.902  0.00  0.00    +0.520 C 
ATOM      6  O   LIG    1        1.571  -0.565  -4.729  0.00  0.00    -0.490 OA
BRANCH   3  11
ATOM      7  C   LIG    1        4.189  -3.536  -9.448  0.00  0.00    +0.100 C 
ATOM      8  C   LIG    1        3.835  -2.399  -8.525  0.00  0.00    -0.130 A 
ATOM      9  C   LIG    1        4.760  -1.404  -8.270  0.00  0.00    +0.070 A 
ATOM     10  C   LIG    1        4.438  -0.358  -7.428  0.00  0.00    -0.010 A 
ATOM     11  C   LIG    1        3.186  -0.310  -6.828  0.00  0.00    +0.170 A 
ATOM     12  C   LIG    1        2.257  -1.309  -7.085  0.00  0.00    +0.000 A 
ATOM     13  C   LIG    1        2.583  -2.352  -7.933  0.00  0.00    +0.120 A 
ATOM     14  F   LIG    1        1.681  -3.325  -8.185  0.00  0.00    -0.130 F 
ENDBRANCH   3  11
ENDBRANCH   1   5
BRANCH   1  15
ATOM     15  O   LIG    1        0.928   1.157  -2.867  0.00  0.00    -0.330 OA
BRANCH  15  16
ATOM     16  C   LIG    1        0.110   2.054  -2.295  0.00  0.00    +0.440 C 
ATOM     17  O   LIG    1        0.123   3.204  -2.662  0.00  0.00    -0.470 OA
BRANCH  16  18
ATOM     18  C   LIG    1       -0.826   1.625  -1.193  0.00  0.00    +0.290 C 
ATOM     19  C   LIG    1       -0.014   1.093   0.007  0.00  0.00    +0.060 C 
ATOM     20  C   LIG    1       -0.806   1.625   1.230  0.00  0.00    +0.040 C 
ATOM     21  C   LIG    1       -1.296   3.001   0.707  0.00  0.00    +0.280 C 
ATOM     22  N   LIG    1       -1.604   2.778  -0.717  0.00  0.00    -1.000 NA
BRANCH  22  23
ATOM     23  S   LIG    1       -2.652   3.678  -1.630  0.00  0.00    +2.620 S 
ATOM     24  O   LIG    1       -2.177   3.526  -2.961  0.00  0.00    -0.930 OA
ATOM     25  O   LIG    1       -2.666   4.950  -0.997  0.00  0.00    -0.940 OA
ATOM     26  C   LIG    1       -4.254   2.849  -1.429  0.00  0.00    -0.290 C 
ENDBRANCH  22  23
ENDBRANCH  16  18
ENDBRANCH  15  16
ENDBRANCH   1  15
TORSDOF 6
