REMARK  Name = ZINCrD0000070XrJ.0
REMARK                            x       y       z     vdW  Elec       q    Type
REMARK                         _______ _______ _______ _____ _____    ______ ____
ROOT
ATOM      1  C   LIG    1       -1.123  -2.103   2.196  0.00  0.00    +0.580 C 
ATOM      2  N   LIG    1       -1.409  -2.050   0.879  0.00  0.00    -0.610 N 
ATOM      3  C   LIG    1       -1.728  -3.206   0.022  0.00  0.00    +0.250 C 
ATOM      4  C   LIG    1       -2.552  -2.616  -1.149  0.00  0.00    +0.040 C 
ATOM      5  C   LIG    1       -1.848  -1.248  -1.371  0.00  0.00    +0.040 C 
ATOM      6  C   LIG    1       -1.454  -0.830   0.061  0.00  0.00    +0.260 C 
ATOM      7  O   LIG    1       -1.071  -3.177   2.763  0.00  0.00    -0.530 OA
ENDROOT
BRANCH   6   8
ATOM      8  C   LIG    1       -0.099  -0.171   0.048  0.00  0.00    -0.100 A 
ATOM      9  C   LIG    1        1.040  -0.932   0.238  0.00  0.00    +0.030 A 
ATOM     10  C   LIG    1        2.285  -0.332   0.228  0.00  0.00    +0.020 A 
ATOM     11  C   LIG    1        2.395   1.036   0.026  0.00  0.00    +0.060 A 
ATOM     12  O   LIG    1        3.627   1.614   0.023  0.00  0.00    -0.310 OA
ATOM     13  C   LIG    1        3.724   2.921  -0.553  0.00  0.00    +0.220 C 
ATOM     14  C   LIG    1        2.569   3.773  -0.008  0.00  0.00    +0.220 C 
ATOM     15  O   LIG    1        1.336   3.143  -0.374  0.00  0.00    -0.310 OA
ATOM     16  C   LIG    1        1.250   1.801  -0.167  0.00  0.00    +0.060 A 
ATOM     17  C   LIG    1        0.004   1.192  -0.154  0.00  0.00    +0.030 A 
ENDBRANCH   6   8
BRANCH   1  22
ATOM     18  C   LIG    1       -0.219   0.261   4.977  0.00  0.00    +0.130 A 
ATOM     19  C   LIG    1       -0.407   1.489   4.355  0.00  0.00    +0.010 A 
ATOM     20  C   LIG    1       -0.827   1.546   3.039  0.00  0.00    +0.020 A 
ATOM     21  C   LIG    1       -1.055   0.383   2.332  0.00  0.00    +0.040 A 
ATOM     22  C   LIG    1       -0.874  -0.856   2.949  0.00  0.00    -0.110 A 
ATOM     23  C   LIG    1       -0.451  -0.913   4.277  0.00  0.00    +0.090 A 
BRANCH  18  26
ATOM     24  C   LIG    1        1.340  -0.931   8.189  0.00  0.00    +0.110 C 
ATOM     25  C   LIG    1        0.979  -0.811   6.731  0.00  0.00    +0.510 C 
ATOM     26  N   LIG    1        0.206   0.209   6.309  0.00  0.00    -0.680 N 
ATOM     27  H   LIG    1       -0.057   0.907   6.929  0.00  0.00    +0.410 HD
ATOM     28  O   LIG    1        1.386  -1.633   5.936  0.00  0.00    -0.520 OA
ENDBRANCH  18  26
ENDBRANCH   1  22
TORSDOF 3
