REMARK  Name = ZINCrH000004phBQ.0
REMARK                            x       y       z     vdW  Elec       q    Type
REMARK                         _______ _______ _______ _____ _____    ______ ____
ROOT
ATOM      1  N   LIG    1        2.553  -2.657  -0.712  0.00  0.00    -0.730 N 
ATOM      2  H   LIG    1        3.355  -2.160  -0.934  0.00  0.00    +0.410 HD
ATOM      3  C   LIG    1        1.419  -2.000  -0.396  0.00  0.00    +0.520 C 
ATOM      4  O   LIG    1        0.415  -2.622  -0.117  0.00  0.00    -0.530 OA
ENDROOT
BRANCH   1   6
ATOM      5  C   LIG    1        2.073  -4.631  -2.074  0.00  0.00    +0.040 C 
ATOM      6  C   LIG    1        2.572  -4.122  -0.720  0.00  0.00    +0.350 C 
BRANCH   6   7
ATOM      7  C   LIG    1        3.981  -4.606  -0.489  0.00  0.00    +0.020 A 
ATOM      8  C   LIG    1        4.315  -5.655   0.274  0.00  0.00    -0.030 A 
ATOM      9  C   LIG    1        5.778  -5.758   0.209  0.00  0.00    -0.130 A 
ATOM     10  C   LIG    1        6.720  -6.619   0.770  0.00  0.00    +0.060 A 
ATOM     11  C   LIG    1        8.058  -6.434   0.498  0.00  0.00    +0.000 A 
ATOM     12  C   LIG    1        8.467  -5.398  -0.329  0.00  0.00    +0.050 A 
ATOM     13  C   LIG    1        7.545  -4.540  -0.890  0.00  0.00    +0.020 A 
ATOM     14  C   LIG    1        6.192  -4.709  -0.629  0.00  0.00    +0.060 A 
ATOM     15  O   LIG    1        5.082  -4.052  -1.025  0.00  0.00    -0.190 OA
ENDBRANCH   6   7
ENDBRANCH   1   6
BRANCH   3  16
ATOM     16  C   LIG    1        1.399  -0.493  -0.387  0.00  0.00    +0.070 C 
BRANCH  16  17
ATOM     17  C   LIG    1        0.002  -0.004   0.002  0.00  0.00    +0.300 C 
BRANCH  17  18
ATOM     18  N   LIG    1       -0.018   1.461   0.010  0.00  0.00    -1.120 NA
ATOM     19  H   LIG    1        0.816   1.957   0.005  0.00  0.00    +0.420 HD
BRANCH  18  20
ATOM     20  S   LIG    1       -1.463   2.269   0.021  0.00  0.00    +2.700 S 
ATOM     21  O   LIG    1       -2.259   1.683  -1.000  0.00  0.00    -0.950 OA
ATOM     22  O   LIG    1       -1.148   3.654   0.062  0.00  0.00    -0.950 OA
BRANCH  20  23
ATOM     23  C   LIG    1       -2.258   1.895   1.548  0.00  0.00    -0.670 A 
ATOM     24  C   LIG    1       -3.107   0.807   1.637  0.00  0.00    +0.140 A 
ATOM     25  C   LIG    1       -3.726   0.509   2.836  0.00  0.00    +0.040 A 
ATOM     26  C   LIG    1       -3.506   1.307   3.945  0.00  0.00    -0.040 A 
ATOM     27  C   LIG    1       -2.662   2.399   3.854  0.00  0.00    +0.030 A 
ATOM     28 BR   LIG    1       -4.360   0.906   5.584  0.00  0.00    -0.030 Br
ATOM     29  C   LIG    1       -2.038   2.692   2.656  0.00  0.00    +0.140 A 
ENDBRANCH  20  23
ENDBRANCH  18  20
ENDBRANCH  17  18
ENDBRANCH  16  17
ENDBRANCH   3  16
TORSDOF 7
