REMARK  Name = ZINCrH000004q5dZ.0
REMARK                            x       y       z     vdW  Elec       q    Type
REMARK                         _______ _______ _______ _____ _____    ______ ____
ROOT
ATOM      1  C   LIG    1        0.026   0.001   0.028  0.00  0.00    +0.570 C 
ATOM      2  N   LIG    1       -0.012   1.347  -0.021  0.00  0.00    -0.730 N 
ATOM      3  H   LIG    1        0.802   1.850  -0.178  0.00  0.00    +0.400 HD
ATOM      4  O   LIG    1       -0.995  -0.629   0.224  0.00  0.00    -0.530 OA
ENDROOT
BRANCH   1  13
ATOM      5  C   LIG    1        2.049  -5.345  -0.089  0.00  0.00    +0.180 C 
ATOM      6  C   LIG    1        2.960  -4.162  -0.290  0.00  0.00    +0.120 A 
ATOM      7  N   LIG    1        4.244  -4.208  -0.502  0.00  0.00    -0.250 NA
ATOM      8  N   LIG    1        4.756  -2.914  -0.641  0.00  0.00    -0.500 N 
ATOM      9  H   LIG    1        5.686  -2.693  -0.805  0.00  0.00    +0.440 HD
ATOM     10  C   LIG    1        3.737  -2.011  -0.509  0.00  0.00    +0.160 A 
ATOM     11  C   LIG    1        3.675  -0.618  -0.556  0.00  0.00    -0.020 A 
ATOM     12  C   LIG    1        2.484   0.020  -0.389  0.00  0.00    +0.090 A 
ATOM     13  C   LIG    1        1.308  -0.709  -0.157  0.00  0.00    -0.180 A 
ATOM     14  C   LIG    1        1.345  -2.097  -0.106  0.00  0.00    +0.190 A 
ATOM     15  C   LIG    1        2.562  -2.756  -0.282  0.00  0.00    -0.190 A 
ENDBRANCH   1  13
BRANCH   2  16
ATOM     16  C   LIG    1       -1.285   2.051   0.156  0.00  0.00    +0.290 C 
BRANCH  16  17
ATOM     17  C   LIG    1       -1.038   3.561   0.152  0.00  0.00    +0.130 C 
BRANCH  17  18
ATOM     18  C   LIG    1       -0.375   3.958  -1.142  0.00  0.00    -0.150 A 
ATOM     19  C   LIG    1       -0.620   3.235  -2.294  0.00  0.00    +0.070 A 
ATOM     20  C   LIG    1       -0.016   3.601  -3.482  0.00  0.00    +0.030 A 
ATOM     21  C   LIG    1        0.843   4.685  -3.515  0.00  0.00    -0.010 A 
ATOM     22  C   LIG    1        1.093   5.405  -2.361  0.00  0.00    +0.030 A 
ATOM     23 CL   LIG    1        1.608   5.142  -5.005  0.00  0.00    -0.060 Cl
ATOM     24  C   LIG    1        0.483   5.042  -1.174  0.00  0.00    +0.080 A 
ENDBRANCH  17  18
BRANCH  17  25
ATOM     25  C   LIG    1       -2.372   4.297   0.288  0.00  0.00    +0.480 C 
ATOM     26  F   LIG    1       -3.199   3.966  -0.791  0.00  0.00    -0.170 F 
ATOM     27  F   LIG    1       -2.145   5.677   0.294  0.00  0.00    -0.170 F 
ATOM     28  F   LIG    1       -2.993   3.921   1.484  0.00  0.00    -0.170 F 
ENDBRANCH  17  25
BRANCH  17  29
ATOM     29  O   LIG    1       -0.189   3.908   1.248  0.00  0.00    -0.520 OA
ATOM     30  H   LIG    1        0.676   3.477   1.227  0.00  0.00    +0.400 HD
ENDBRANCH  17  29
ENDBRANCH  16  17
ENDBRANCH   2  16
TORSDOF 6
