REMARK  Name = ZINCpk00000xI5oV.1
REMARK                            x       y       z     vdW  Elec       q    Type
REMARK                         _______ _______ _______ _____ _____    ______ ____
ROOT
ATOM      1  N   LIG    1       -0.377   5.288   0.033  0.00  0.00    -0.440 N 
ATOM      2  C   LIG    1       -1.735   5.351   0.046  0.00  0.00    +0.570 A 
ATOM      3  N   LIG    1       -2.230   4.130   0.044  0.00  0.00    -0.500 NA
ATOM      4  C   LIG    1       -1.238   3.238   0.030  0.00  0.00    +0.350 A 
ATOM      5  N   LIG    1       -1.199   1.852   0.018  0.00  0.00    -0.510 N 
ATOM      6  C   LIG    1       -2.446   1.084   0.020  0.00  0.00    +0.350 C 
ATOM      7  C   LIG    1       -0.014   1.212   0.009  0.00  0.00    +0.710 A 
ATOM      8  O   LIG    1        0.002  -0.004   0.002  0.00  0.00    -0.540 OA
ATOM      9  N   LIG    1        1.150   1.883   0.001  0.00  0.00    -0.650 N 
ATOM     10  H   LIG    1        1.986   1.390  -0.009  0.00  0.00    +0.440 HD
ATOM     11  C   LIG    1        1.175   3.232   0.008  0.00  0.00    +0.600 A 
ATOM     12  O   LIG    1        2.237   3.829   0.002  0.00  0.00    -0.520 OA
ATOM     13  C   LIG    1       -0.039   3.942   0.023  0.00  0.00    -0.170 A 
ENDROOT
BRANCH   2  14
ATOM     14  N   LIG    1       -2.478   6.510   0.059  0.00  0.00    -0.550 N 
ATOM     15  H   LIG    1       -2.033   7.372   0.059  0.00  0.00    +0.400 HD
BRANCH  14  16
ATOM     16  N   LIG    1       -3.877   6.445   0.072  0.00  0.00    -0.200 NA
ATOM     17  C   LIG    1       -4.578   7.538   0.085  0.00  0.00    +0.230 C 
BRANCH  17  18
ATOM     18  C   LIG    1       -6.051   7.469   0.098  0.00  0.00    -0.060 A 
ATOM     19  C   LIG    1       -6.696   6.230   0.092  0.00  0.00    +0.060 A 
ATOM     20  C   LIG    1       -8.074   6.174   0.109  0.00  0.00    +0.010 A 
ATOM     21  C   LIG    1       -8.817   7.341   0.122  0.00  0.00    +0.030 A 
ATOM     22  C   LIG    1       -8.185   8.572   0.124  0.00  0.00    +0.000 A 
ATOM     23  C   LIG    1       -6.808   8.643   0.111  0.00  0.00    +0.040 A 
ENDBRANCH  17  18
ENDBRANCH  14  16
ENDBRANCH   2  14
BRANCH   1  24
ATOM     24  C   LIG    1        0.551   6.422   0.031  0.00  0.00    +0.350 C 
BRANCH  24  27
ATOM     25  C   LIG    1        0.965   8.449  -3.204  0.00  0.00    +0.080 C 
ATOM     26  C   LIG    1        0.660   8.053  -1.783  0.00  0.00    -0.020 C 
ATOM     27  C   LIG    1        0.856   6.819  -1.391  0.00  0.00    -0.070 C 
ENDBRANCH  24  27
ENDBRANCH   1  24
TORSDOF 5
