REMARK  Name = ZINCpk00000xI5oV.0
REMARK                            x       y       z     vdW  Elec       q    Type
REMARK                         _______ _______ _______ _____ _____    ______ ____
ROOT
ATOM      1  N   LIG    1        1.552   3.384   0.006  0.00  0.00    -0.370 N 
ATOM      2  C   LIG    1        2.913   3.443  -0.006  0.00  0.00    +0.410 A 
ATOM      3  N   LIG    1        3.401   2.218  -0.018  0.00  0.00    -0.460 NA
ATOM      4  C   LIG    1        2.404   1.336  -0.013  0.00  0.00    +0.320 A 
ATOM      5  N   LIG    1        2.352  -0.050  -0.021  0.00  0.00    -0.510 N 
ATOM      6  C   LIG    1        3.593  -0.828  -0.037  0.00  0.00    +0.350 C 
ATOM      7  C   LIG    1        1.163  -0.681  -0.013  0.00  0.00    +0.710 A 
ATOM      8  O   LIG    1        1.139  -1.897  -0.019  0.00  0.00    -0.530 OA
ATOM      9  N   LIG    1        0.002  -0.004   0.002  0.00  0.00    -0.650 N 
ATOM     10  H   LIG    1       -0.836  -0.493   0.008  0.00  0.00    +0.440 HD
ATOM     11  C   LIG    1       -0.016   1.345   0.009  0.00  0.00    +0.600 A 
ATOM     12  O   LIG    1       -1.075   1.947   0.018  0.00  0.00    -0.500 OA
ATOM     13  C   LIG    1        1.210   2.052   0.002  0.00  0.00    -0.120 A 
ENDROOT
BRANCH   2  14
ATOM     14  N   LIG    1        3.656   4.591  -0.007  0.00  0.00    -0.170 NA
ATOM     15  N   LIG    1        4.894   4.528  -0.019  0.00  0.00    -0.140 NA
BRANCH  15  16
ATOM     16  C   LIG    1        5.690   5.758  -0.020  0.00  0.00    +0.270 C 
BRANCH  16  17
ATOM     17  C   LIG    1        6.571   5.787   1.203  0.00  0.00    -0.090 A 
ATOM     18  C   LIG    1        6.112   6.366   2.372  0.00  0.00    +0.020 A 
ATOM     19  C   LIG    1        6.918   6.388   3.494  0.00  0.00    +0.000 A 
ATOM     20  C   LIG    1        8.187   5.841   3.446  0.00  0.00    +0.010 A 
ATOM     21  C   LIG    1        8.647   5.268   2.275  0.00  0.00    +0.010 A 
ATOM     22  C   LIG    1        7.839   5.241   1.154  0.00  0.00    +0.040 A 
ENDBRANCH  16  17
ENDBRANCH  15  16
ENDBRANCH   2  14
BRANCH   1  23
ATOM     23  C   LIG    1        0.630   4.522   0.022  0.00  0.00    +0.360 C 
BRANCH  23  26
ATOM     24  C   LIG    1       -1.280   5.384  -3.196  0.00  0.00    +0.080 C 
ATOM     25  C   LIG    1       -0.950   4.985  -1.781  0.00  0.00    +0.010 C 
ATOM     26  C   LIG    1        0.300   4.921  -1.393  0.00  0.00    -0.080 C 
ENDBRANCH  23  26
ENDBRANCH   1  23
TORSDOF 5
