REMARK  Name = ZINCrH00000No4xr.0
REMARK                            x       y       z     vdW  Elec       q    Type
REMARK                         _______ _______ _______ _____ _____    ______ ____
ROOT
ATOM      1  C   LIG    1       -1.957   2.439   3.543  0.00  0.00    +0.280 C 
ATOM      2  C   LIG    1       -2.592   2.760   4.700  0.00  0.00    -0.280 C 
ATOM      3  S   LIG    1       -2.092   2.384   6.361  0.00  0.00    +0.120 S 
ATOM      4  C   LIG    1       -3.489   3.176   7.111  0.00  0.00    +0.250 C 
ATOM      5  N   LIG    1       -4.241   3.661   6.117  0.00  0.00    -0.510 N 
ATOM      6  S   LIG    1       -3.816   3.292   8.788  0.00  0.00    -0.360 S 
ATOM      7  C   LIG    1       -3.854   3.490   4.864  0.00  0.00    +0.550 C 
ATOM      8  O   LIG    1       -4.496   3.908   3.918  0.00  0.00    -0.450 OA
ENDROOT
BRANCH   1  15
ATOM      9  C   LIG    1       -0.112   1.156   2.470  0.00  0.00    +0.190 A 
ATOM     10  C   LIG    1        1.160   0.610   2.517  0.00  0.00    -0.060 A 
ATOM     11  C   LIG    1        1.931   0.743   3.657  0.00  0.00    +0.130 A 
ATOM     12  C   LIG    1        1.440   1.423   4.761  0.00  0.00    -0.130 A 
ATOM     13  C   LIG    1        0.176   1.974   4.733  0.00  0.00    +0.120 A 
ATOM     14 BR   LIG    1        2.508   1.596   6.311  0.00  0.00    -0.030 Br
ATOM     15  C   LIG    1       -0.613   1.851   3.583  0.00  0.00    -0.130 A 
BRANCH   9  16
ATOM     16  O   LIG    1       -0.869   1.025   1.351  0.00  0.00    -0.300 OA
BRANCH  16  17
ATOM     17  C   LIG    1       -0.291   0.311   0.257  0.00  0.00    +0.190 C 
BRANCH  17  19
ATOM     18  C   LIG    1       -0.666  -0.497  -2.078  0.00  0.00    +0.040 C 
ATOM     19  C   LIG    1       -1.284   0.268  -0.906  0.00  0.00    +0.040 C 
ENDBRANCH  17  19
ENDBRANCH  16  17
ENDBRANCH   9  16
ENDBRANCH   1  15
BRANCH   5  20
ATOM     20  C   LIG    1       -5.485   4.375   6.414  0.00  0.00    +0.320 C 
BRANCH  20  21
ATOM     21  C   LIG    1       -6.646   3.380   6.461  0.00  0.00    +0.180 C 
BRANCH  21  22
ATOM     22  N   LIG    1       -7.894   4.097   6.759  0.00  0.00    -0.530 NA
ATOM     23  C   LIG    1       -7.867   4.658   8.118  0.00  0.00    +0.150 C 
ATOM     24  C   LIG    1       -9.157   5.445   8.364  0.00  0.00    +0.220 C 
ATOM     25  O   LIG    1      -10.281   4.586   8.155  0.00  0.00    -0.380 OA
ATOM     26  C   LIG    1      -10.338   4.022   6.842  0.00  0.00    +0.220 C 
ATOM     27  C   LIG    1       -9.060   3.221   6.580  0.00  0.00    +0.160 C 
ENDBRANCH  21  22
ENDBRANCH  20  21
ENDBRANCH   5  20
TORSDOF 7
