REMARK  Name = ZINCrH00000No4xR.1
REMARK                            x       y       z     vdW  Elec       q    Type
REMARK                         _______ _______ _______ _____ _____    ______ ____
ROOT
ATOM      1  C   LIG    1       -6.262   5.586  -0.681  0.00  0.00    -0.670 A 
ATOM      2  C   LIG    1       -7.298   5.097   0.096  0.00  0.00    +0.140 A 
ATOM      3  C   LIG    1       -7.120   3.959   0.861  0.00  0.00    +0.000 A 
ATOM      4  C   LIG    1       -5.903   3.300   0.853  0.00  0.00    +0.180 A 
ATOM      5  C   LIG    1       -4.851   3.791   0.067  0.00  0.00    +0.040 A 
ATOM      6  C   LIG    1       -5.041   4.944  -0.697  0.00  0.00    +0.100 A 
ENDROOT
BRANCH   1   7
ATOM      7  S   LIG    1       -6.503   7.038  -1.651  0.00  0.00    +2.690 S 
ATOM      8  O   LIG    1       -7.902   7.144  -1.874  0.00  0.00    -0.950 OA
ATOM      9  O   LIG    1       -5.550   6.980  -2.704  0.00  0.00    -0.950 OA
BRANCH   7  10
ATOM     10  N   LIG    1       -6.080   8.332  -0.708  0.00  0.00    -1.000 NA
BRANCH  10  12
ATOM     11  C   LIG    1       -4.569   9.972  -1.712  0.00  0.00    +0.010 C 
ATOM     12  C   LIG    1       -4.699   8.822  -0.713  0.00  0.00    +0.280 C 
ENDBRANCH  10  12
BRANCH  10  13
ATOM     13  C   LIG    1       -7.087   8.988   0.130  0.00  0.00    +0.300 C 
ATOM     14  C   LIG    1       -7.032   8.406   1.543  0.00  0.00    +0.010 C 
ENDBRANCH  10  13
ENDBRANCH   7  10
ENDBRANCH   1   7
BRANCH   5  15
ATOM     15  N   LIG    1       -3.645   3.148   0.052  0.00  0.00    -0.460 NA
ATOM     16  C   LIG    1       -2.539   3.837   0.045  0.00  0.00    +0.310 C 
BRANCH  16  17
ATOM     17  C   LIG    1       -1.240   3.144   0.030  0.00  0.00    -0.070 A 
ATOM     18  C   LIG    1       -0.065   3.882   0.023  0.00  0.00    +0.090 A 
ATOM     19  C   LIG    1        1.167   3.213   0.008  0.00  0.00    -0.110 A 
ATOM     20  C   LIG    1        2.383   3.923   0.000  0.00  0.00    +0.090 A 
ATOM     21  C   LIG    1        3.547   3.208  -0.015  0.00  0.00    -0.040 A 
ATOM     22  C   LIG    1        3.507   1.816  -0.022  0.00  0.00    +0.300 A 
ATOM     23  N   LIG    1        2.372   1.158  -0.015  0.00  0.00    -0.480 NA
ATOM     24  C   LIG    1        1.198   1.795   0.000  0.00  0.00    +0.140 A 
ATOM     25  C   LIG    1       -0.013   1.076   0.008  0.00  0.00    +0.040 A 
ATOM     26  C   LIG    1       -1.197   1.736   0.017  0.00  0.00    +0.080 A 
ENDBRANCH  16  17
ENDBRANCH   5  15
BRANCH   4  27
ATOM     27  O   LIG    1       -5.728   2.181   1.603  0.00  0.00    -0.480 OA
ATOM     28  H   LIG    1       -5.404   2.355   2.498  0.00  0.00    +0.400 HD
ENDBRANCH   4  27
TORSDOF 7
