REMARK  Name = ZINCrD000000Ayd2.0
REMARK                            x       y       z     vdW  Elec       q    Type
REMARK                         _______ _______ _______ _____ _____    ______ ____
ROOT
ATOM      1  O   LIG    1       -5.743   1.569  -3.659  0.00  0.00    -0.520 OA
ATOM      2  C   LIG    1       -6.321   2.034  -2.700  0.00  0.00    +0.520 C 
ATOM      3  N   LIG    1       -6.788   3.297  -2.742  0.00  0.00    -0.610 N 
ATOM      4  C   LIG    1       -7.496   3.872  -1.589  0.00  0.00    +0.270 C 
ATOM      5  C   LIG    1       -6.787   5.175  -1.184  0.00  0.00    +0.260 C 
ATOM      6  N   LIG    1       -6.603   6.001  -2.386  0.00  0.00    -0.610 N 
ATOM      7  C   LIG    1       -5.899   5.424  -3.540  0.00  0.00    +0.290 C 
ATOM      8  C   LIG    1       -7.069   7.264  -2.428  0.00  0.00    +0.570 C 
ATOM      9  O   LIG    1       -6.844   7.964  -3.396  0.00  0.00    -0.510 OA
ATOM     10  C   LIG    1       -6.604   4.123  -3.943  0.00  0.00    +0.290 C 
ENDROOT
BRANCH   8  11
ATOM     11  C   LIG    1       -7.855   7.799  -1.298  0.00  0.00    -0.180 A 
ATOM     12  C   LIG    1       -7.334   7.763  -0.003  0.00  0.00    +0.120 A 
ATOM     13  C   LIG    1       -8.069   8.269   1.047  0.00  0.00    -0.020 A 
ATOM     14  C   LIG    1       -9.329   8.803   0.823  0.00  0.00    +0.160 A 
ATOM     15  C   LIG    1       -9.856   8.837  -0.458  0.00  0.00    -0.030 A 
ATOM     16  F   LIG    1      -10.046   9.293   1.858  0.00  0.00    -0.120 F 
ATOM     17  C   LIG    1       -9.127   8.338  -1.520  0.00  0.00    +0.180 A 
ATOM     18  F   LIG    1       -9.640   8.372  -2.769  0.00  0.00    -0.110 F 
ENDBRANCH   8  11
BRANCH   2  19
ATOM     19  C   LIG    1       -6.518   1.198  -1.461  0.00  0.00    +0.120 C 
BRANCH  19  20
ATOM     20  C   LIG    1       -5.908  -0.163  -1.671  0.00  0.00    -0.010 A 
ATOM     21  C   LIG    1       -4.661  -0.450  -1.148  0.00  0.00    +0.000 A 
ATOM     22  C   LIG    1       -4.101  -1.702  -1.342  0.00  0.00    +0.120 A 
ATOM     23  C   LIG    1       -4.790  -2.664  -2.059  0.00  0.00    +0.000 A 
ATOM     24  C   LIG    1       -6.037  -2.376  -2.581  0.00  0.00    +0.090 A 
ATOM     25  F   LIG    1       -2.882  -1.983  -0.831  0.00  0.00    -0.130 F 
ATOM     26  C   LIG    1       -6.593  -1.124  -2.392  0.00  0.00    -0.090 A 
ATOM     27 BR   LIG    1       -8.296  -0.728  -3.114  0.00  0.00    -0.040 Br
ENDBRANCH  19  20
ENDBRANCH   2  19
TORSDOF 3
