REMARK  Name = ZINCvU00000008ZY.0
REMARK                            x       y       z     vdW  Elec       q    Type
REMARK                         _______ _______ _______ _____ _____    ______ ____
ROOT
ATOM      1  C   LIG    1       -0.830   1.628  -3.525  0.00  0.00    -0.120 A 
ATOM      2  C   LIG    1       -0.329   1.281  -4.747  0.00  0.00    +0.140 A 
ATOM      3  C   LIG    1        0.815   0.483  -4.828  0.00  0.00    -0.180 A 
ATOM      4  C   LIG    1        1.452   0.042  -3.656  0.00  0.00    +0.190 A 
ATOM      5  O   LIG    1        2.558  -0.729  -3.737  0.00  0.00    -0.270 OA
ATOM      6  C   LIG    1        3.080  -1.098  -4.917  0.00  0.00    +0.510 A 
ATOM      7  C   LIG    1        2.506  -0.703  -6.138  0.00  0.00    -0.080 A 
ATOM      8  O   LIG    1        4.079  -1.795  -4.931  0.00  0.00    -0.460 OA
ATOM      9  C   LIG    1        0.935   0.408  -2.422  0.00  0.00    -0.080 A 
ATOM     10  C   LIG    1        1.373   0.089  -6.132  0.00  0.00    +0.090 A 
ATOM     11  C   LIG    1       -0.200   1.200  -2.358  0.00  0.00    +0.190 A 
ENDROOT
BRANCH  10  12
ATOM     12  C   LIG    1        0.741   0.525  -7.397  0.00  0.00    -0.070 A 
ATOM     13  C   LIG    1        0.705   1.880  -7.731  0.00  0.00    +0.030 A 
ATOM     14  C   LIG    1        0.117   2.280  -8.914  0.00  0.00    +0.010 A 
ATOM     15  C   LIG    1       -0.444   1.342  -9.762  0.00  0.00    +0.030 A 
ATOM     16  C   LIG    1       -0.417  -0.002  -9.434  0.00  0.00    +0.010 A 
ATOM     17  C   LIG    1        0.172  -0.415  -8.257  0.00  0.00    +0.040 A 
ENDBRANCH  10  12
BRANCH   1  19
ATOM     18  C   LIG    1       -1.662   3.952  -3.289  0.00  0.00    +0.020 C 
ATOM     19  C   LIG    1       -2.067   2.483  -3.437  0.00  0.00    +0.070 C 
ENDBRANCH   1  19
BRANCH  11  20
ATOM     20  O   LIG    1       -0.705   1.556  -1.150  0.00  0.00    -0.270 OA
BRANCH  20  21
ATOM     21  C   LIG    1       -0.016   1.080   0.008  0.00  0.00    +0.260 C 
BRANCH  21  22
ATOM     22  C   LIG    1       -0.717   1.573   1.248  0.00  0.00    +0.520 C 
ATOM     23  N   LIG    1       -0.242   1.246   2.466  0.00  0.00    -0.670 N 
ATOM     24  H   LIG    1        0.511   0.639   2.546  0.00  0.00    +0.420 HD
ATOM     25  O   LIG    1       -1.709   2.264   1.150  0.00  0.00    -0.490 OA
BRANCH  23  26
ATOM     26  C   LIG    1       -0.834   1.782   3.616  0.00  0.00    +0.130 A 
ATOM     27  C   LIG    1       -0.053   2.086   4.723  0.00  0.00    +0.030 A 
ATOM     28  C   LIG    1       -0.638   2.619   5.854  0.00  0.00    +0.010 A 
ATOM     29  C   LIG    1       -2.004   2.841   5.889  0.00  0.00    +0.090 A 
ATOM     30  C   LIG    1       -2.786   2.534   4.788  0.00  0.00    +0.010 A 
ATOM     31  F   LIG    1       -2.576   3.358   6.999  0.00  0.00    -0.140 F 
ATOM     32  C   LIG    1       -2.204   2.006   3.653  0.00  0.00    +0.060 A 
ENDBRANCH  23  26
ENDBRANCH  21  22
ENDBRANCH  20  21
ENDBRANCH  11  20
TORSDOF 6
