REMARK  Name = ZINCpe000000UwJv.0
REMARK                            x       y       z     vdW  Elec       q    Type
REMARK                         _______ _______ _______ _____ _____    ______ ____
ROOT
ATOM      1  C   LIG    1       -4.937   4.213   0.048  0.00  0.00    +0.570 C 
ATOM      2  N   LIG    1       -4.957   5.556   0.157  0.00  0.00    -0.610 N 
ATOM      3  C   LIG    1       -3.705   6.324   0.163  0.00  0.00    +0.270 C 
ATOM      4  C   LIG    1       -3.777   7.381  -0.952  0.00  0.00    +0.290 C 
ATOM      5  N   LIG    1       -5.052   8.102  -0.832  0.00  0.00    -1.010 NA
ATOM      6  C   LIG    1       -6.304   7.333  -0.832  0.00  0.00    +0.290 C 
ATOM      7  C   LIG    1       -6.232   6.277   0.278  0.00  0.00    +0.280 C 
ATOM      8  O   LIG    1       -5.979   3.596  -0.059  0.00  0.00    -0.540 OA
ENDROOT
BRANCH   1  12
ATOM      9  C   LIG    1       -1.234   2.135   0.076  0.00  0.00    +0.240 A 
ATOM     10  C   LIG    1       -1.454   3.175   0.975  0.00  0.00    -0.070 A 
ATOM     11  C   LIG    1       -2.651   3.854   0.965  0.00  0.00    +0.090 A 
ATOM     12  C   LIG    1       -3.651   3.491   0.058  0.00  0.00    -0.200 A 
ATOM     13  C   LIG    1       -3.429   2.442  -0.840  0.00  0.00    +0.120 A 
ATOM     14  C   LIG    1       -2.227   1.771  -0.828  0.00  0.00    -0.070 A 
BRANCH   9  16
ATOM     15  C   LIG    1        0.210   0.357  -0.856  0.00  0.00    +0.280 C 
ATOM     16  N   LIG    1       -0.021   1.456   0.085  0.00  0.00    -0.630 N 
ATOM     17  C   LIG    1        1.028   1.841   1.032  0.00  0.00    +0.290 C 
ENDBRANCH   9  16
ENDBRANCH   1  12
BRANCH   5  18
ATOM     18  S   LIG    1       -5.076   9.753  -0.696  0.00  0.00    +2.800 S 
ATOM     19  O   LIG    1       -6.357  10.173  -1.146  0.00  0.00    -0.970 OA
ATOM     20  O   LIG    1       -3.861  10.220  -1.265  0.00  0.00    -0.970 OA
BRANCH  18  21
ATOM     21  N   LIG    1       -5.006  10.113   0.918  0.00  0.00    -1.020 NA
ATOM     22  C   LIG    1       -6.163  10.284   1.809  0.00  0.00    +0.250 C 
ATOM     23  C   LIG    1       -5.616  10.633   3.209  0.00  0.00    +0.030 C 
ATOM     24  C   LIG    1       -4.207  11.204   2.897  0.00  0.00    +0.030 C 
ATOM     25  C   LIG    1       -3.773  10.323   1.699  0.00  0.00    +0.270 C 
ENDBRANCH  18  21
ENDBRANCH   5  18
TORSDOF 4
