REMARK  Name = ZINCrg00000fSHLe.0
REMARK                            x       y       z     vdW  Elec       q    Type
REMARK                         _______ _______ _______ _____ _____    ______ ____
ROOT
ATOM      1  O   LIG    1        0.669   2.248   3.351  0.00  0.00    -0.520 OA
ATOM      2  C   LIG    1        0.194   1.377   2.655  0.00  0.00    +0.560 C 
ATOM      3  N   LIG    1        0.414   0.081   2.952  0.00  0.00    -0.640 N 
ATOM      4  C   LIG    1        0.098  -1.216   2.336  0.00  0.00    +0.260 C 
ATOM      5  C   LIG    1        1.340  -1.789   3.037  0.00  0.00    +0.140 C 
ATOM      6  C   LIG    1        1.072  -0.659   4.040  0.00  0.00    +0.310 C 
ENDROOT
BRANCH   2   7
ATOM      7  C   LIG    1       -0.643   1.743   1.456  0.00  0.00    +0.000 C 
ATOM      8  C   LIG    1       -1.421   3.031   1.746  0.00  0.00    +0.070 C 
ATOM      9  C   LIG    1       -2.461   3.258   0.643  0.00  0.00    +0.320 C 
ATOM     10  N   LIG    1       -1.789   3.178  -0.659  0.00  0.00    -0.560 N 
ATOM     11  C   LIG    1       -2.237   3.635  -1.839  0.00  0.00    +0.650 A 
ATOM     12  N   LIG    1       -1.330   3.286  -2.777  0.00  0.00    -0.550 N 
ATOM     13  H   LIG    1       -1.390   3.462  -3.729  0.00  0.00    +0.460 HD
ATOM     14  N   LIG    1       -0.284   2.620  -2.120  0.00  0.00    -0.270 NA
ATOM     15  O   LIG    1       -3.271   4.251  -2.029  0.00  0.00    -0.550 OA
ATOM     16  C   LIG    1       -0.565   2.574  -0.864  0.00  0.00    +0.280 A 
ATOM     17  C   LIG    1        0.269   1.973   0.244  0.00  0.00    +0.190 C 
ENDBRANCH   2   7
BRANCH   5  18
ATOM     18  C   LIG    1        2.624  -1.635   2.263  0.00  0.00    -0.090 A 
ATOM     19  C   LIG    1        2.595  -1.517   0.907  0.00  0.00    +0.030 A 
ATOM     20  C   LIG    1        3.772  -1.373   0.174  0.00  0.00    +0.010 A 
ATOM     21  C   LIG    1        4.984  -1.348   0.792  0.00  0.00    +0.040 A 
ATOM     22  C   LIG    1        5.054  -1.468   2.191  0.00  0.00    -0.050 A 
ATOM     23  C   LIG    1        6.287  -1.447   2.864  0.00  0.00    +0.020 A 
ATOM     24  C   LIG    1        6.316  -1.566   4.220  0.00  0.00    +0.020 A 
ATOM     25  C   LIG    1        5.140  -1.709   4.953  0.00  0.00    +0.020 A 
ATOM     26  C   LIG    1        3.927  -1.734   4.334  0.00  0.00    +0.020 A 
ATOM     27  C   LIG    1        3.857  -1.608   2.937  0.00  0.00    -0.030 A 
ENDBRANCH   5  18
BRANCH   5  28
ATOM     28  O   LIG    1        1.156  -3.102   3.570  0.00  0.00    -0.530 OA
ATOM     29  H   LIG    1        1.326  -3.811   2.936  0.00  0.00    +0.390 HD
ENDBRANCH   5  28
TORSDOF 3
