REMARK  Name = ZINCqH00000358Yv.0
REMARK                            x       y       z     vdW  Elec       q    Type
REMARK                         _______ _______ _______ _____ _____    ______ ____
ROOT
ATOM      1  N   LIG    1       -2.459   4.236   0.048  0.00  0.00    -1.050 N 
ATOM      2  H   LIG    1       -3.169   3.955   0.646  0.00  0.00    +0.430 HD
ENDROOT
BRANCH   1   3
ATOM      3  C   LIG    1       -1.244   3.548   0.033  0.00  0.00    +0.140 A 
ATOM      4  C   LIG    1       -0.046   4.253   0.025  0.00  0.00    +0.020 A 
ATOM      5  C   LIG    1        1.159   3.575   0.010  0.00  0.00    +0.050 A 
ATOM      6  C   LIG    1        1.179   2.195   0.003  0.00  0.00    +0.020 A 
ATOM      7  C   LIG    1       -0.018   1.479   0.010  0.00  0.00    -0.000 A 
ATOM      8  C   LIG    1       -1.232   2.161   0.020  0.00  0.00    +0.050 A 
BRANCH   7   9
ATOM      9  C   LIG    1        0.002  -0.004   0.002  0.00  0.00    +0.110 A 
ATOM     10  C   LIG    1        1.140  -0.723   0.081  0.00  0.00    -0.070 A 
ATOM     11  S   LIG    1        0.706  -2.430   0.041  0.00  0.00    +0.140 S 
ATOM     12  C   LIG    1       -0.949  -2.019  -0.086  0.00  0.00    +0.050 A 
ATOM     13  C   LIG    1       -2.076  -3.014  -0.180  0.00  0.00    +0.180 C 
ATOM     14  N   LIG    1       -1.097  -0.740  -0.089  0.00  0.00    -0.470 NA
ENDBRANCH   7   9
ENDBRANCH   1   3
BRANCH   1  15
ATOM     15  S   LIG    1       -2.689   5.532  -0.958  0.00  0.00    +2.690 S 
ATOM     16  O   LIG    1       -1.548   6.365  -0.806  0.00  0.00    -0.940 OA
ATOM     17  O   LIG    1       -4.017   5.984  -0.731  0.00  0.00    -0.940 OA
BRANCH  15  21
ATOM     18  C   LIG    1       -2.577   3.969  -5.209  0.00  0.00    -0.070 A 
ATOM     19  C   LIG    1       -3.787   4.027  -4.515  0.00  0.00    +0.070 A 
ATOM     20  C   LIG    1       -3.814   4.504  -3.221  0.00  0.00    +0.120 A 
ATOM     21  C   LIG    1       -2.646   4.924  -2.611  0.00  0.00    -0.650 A 
ATOM     22  C   LIG    1       -1.444   4.875  -3.295  0.00  0.00    +0.120 A 
ATOM     23  C   LIG    1       -1.401   4.394  -4.587  0.00  0.00    +0.070 A 
BRANCH  18  24
ATOM     24  C   LIG    1       -2.541   3.460  -6.596  0.00  0.00    +0.500 C 
ATOM     25  O   LIG    1       -3.565   3.091  -7.135  0.00  0.00    -0.490 OA
BRANCH  24  27
ATOM     26  C   LIG    1       -1.411   2.895  -8.621  0.00  0.00    +0.290 C 
ATOM     27  O   LIG    1       -1.371   3.406  -7.263  0.00  0.00    -0.350 OA
ENDBRANCH  24  27
ENDBRANCH  18  24
ENDBRANCH  15  21
ENDBRANCH   1  15
TORSDOF 6
