REMARK  Name = ZINCpk00000xPpwy.0
REMARK                            x       y       z     vdW  Elec       q    Type
REMARK                         _______ _______ _______ _____ _____    ______ ____
ROOT
ATOM      1  C   LIG    1       -0.848   1.881  -1.254  0.00  0.00    -0.110 A 
ATOM      2  C   LIG    1        0.008   1.108  -0.490  0.00  0.00    +0.050 A 
ATOM      3  C   LIG    1        0.844   1.703   0.439  0.00  0.00    +0.010 A 
ATOM      4  C   LIG    1        0.823   3.071   0.614  0.00  0.00    +0.040 A 
ATOM      5  C   LIG    1       -0.043   3.856  -0.150  0.00  0.00    -0.130 A 
ATOM      6  C   LIG    1       -0.882   3.250  -1.086  0.00  0.00    +0.090 A 
ENDROOT
BRANCH   5   7
ATOM      7  C   LIG    1       -0.070   5.323   0.031  0.00  0.00    +0.560 C 
ATOM      8  N   LIG    1        1.084   6.012   0.127  0.00  0.00    -0.600 N 
ATOM      9  C   LIG    1        2.385   5.320   0.114  0.00  0.00    +0.250 C 
ATOM     10  C   LIG    1        3.292   6.024  -0.903  0.00  0.00    +0.210 C 
ATOM     11  O   LIG    1        3.336   7.423  -0.613  0.00  0.00    -0.370 OA
ATOM     12  C   LIG    1        2.072   8.085  -0.735  0.00  0.00    +0.240 C 
ATOM     13  C   LIG    1        1.084   7.469   0.240  0.00  0.00    +0.110 C 
ATOM     14  C   LIG    1        1.421   7.896   1.686  0.00  0.00    +0.020 C 
ATOM     15  C   LIG    1        0.019   7.831   2.344  0.00  0.00    +0.180 C 
ATOM     16  O   LIG    1       -0.897   8.262   1.324  0.00  0.00    -0.370 OA
ATOM     17  C   LIG    1       -0.326   8.037   0.027  0.00  0.00    +0.220 C 
ATOM     18  O   LIG    1       -1.134   5.908   0.095  0.00  0.00    -0.500 OA
ENDBRANCH   5   7
BRANCH   1  19
ATOM     19  C   LIG    1       -1.750   1.225  -2.267  0.00  0.00    +0.350 C 
BRANCH  19  25
ATOM     20  O   LIG    1       -4.143   2.803  -2.059  0.00  0.00    -0.520 OA
ATOM     21  C   LIG    1       -4.094   1.688  -1.583  0.00  0.00    +0.520 C 
ATOM     22  C   LIG    1       -5.228   1.009  -0.847  0.00  0.00    +0.050 C 
ATOM     23  C   LIG    1       -4.549  -0.163  -0.102  0.00  0.00    +0.040 C 
ATOM     24  C   LIG    1       -3.298  -0.408  -0.978  0.00  0.00    +0.250 C 
ATOM     25  N   LIG    1       -3.024   0.876  -1.634  0.00  0.00    -0.620 N 
ENDBRANCH  19  25
ENDBRANCH   1  19
TORSDOF 3
