REMARK  Name = ZINCrD00000F5LwK.0
REMARK                            x       y       z     vdW  Elec       q    Type
REMARK                         _______ _______ _______ _____ _____    ______ ____
ROOT
ATOM      1  C   LIG    1        1.148   3.593   0.011  0.00  0.00    +0.290 C 
ENDROOT
BRANCH   1   2
ATOM      2  C   LIG    1        1.169   2.086   0.002  0.00  0.00    -0.110 A 
ATOM      3  C   LIG    1       -0.017   1.379   0.010  0.00  0.00    +0.170 A 
ATOM      4  C   LIG    1        0.002  -0.004   0.002  0.00  0.00    -0.070 A 
ATOM      5  C   LIG    1        1.207  -0.681  -0.012  0.00  0.00    +0.150 A 
ATOM      6  C   LIG    1        2.397   0.023  -0.019  0.00  0.00    -0.200 A 
ATOM      7  C   LIG    1        3.706  -0.726  -0.031  0.00  0.00    +0.320 C 
ATOM      8  O   LIG    1        4.758   0.168  -0.408  0.00  0.00    -0.380 OA
ATOM      9  C   LIG    1        4.735   1.401   0.321  0.00  0.00    +0.440 C 
ATOM     10  O   LIG    1        3.544   2.113  -0.025  0.00  0.00    -0.320 OA
ATOM     11  C   LIG    1        2.381   1.409  -0.014  0.00  0.00    +0.200 A 
BRANCH   4  12
ATOM     12  N   LIG    1       -1.270  -0.760   0.009  0.00  0.00    +0.030 N 
ATOM     13  O   LIG    1       -1.254  -1.978   0.003  0.00  0.00    -0.160 OA
ATOM     14  O   LIG    1       -2.333  -0.165   0.022  0.00  0.00    -0.160 OA
ENDBRANCH   4  12
ENDBRANCH   1   2
BRANCH   1  15
ATOM     15  O   LIG    1       -0.206   4.050   0.026  0.00  0.00    -0.240 OA
BRANCH  15  18
ATOM     16  C   LIG    1       -2.742   5.128   0.056  0.00  0.00    +0.100 C 
ATOM     17  C   LIG    1       -1.513   6.000   0.049  0.00  0.00    +0.190 C 
ATOM     18  N   LIG    1       -0.337   5.460   0.035  0.00  0.00    -0.340 NA
BRANCH  17  19
ATOM     19  C   LIG    1       -1.650   7.469   0.059  0.00  0.00    -0.090 A 
ATOM     20  C   LIG    1       -2.917   8.058   0.068  0.00  0.00    +0.090 A 
ATOM     21  C   LIG    1       -3.043   9.428   0.078  0.00  0.00    +0.000 A 
ATOM     22  C   LIG    1       -1.910  10.242   0.067  0.00  0.00    +0.130 A 
ATOM     23  O   LIG    1       -1.815  11.599   0.057  0.00  0.00    -0.300 OA
ATOM     24  C   LIG    1       -0.497  11.986   0.482  0.00  0.00    +0.240 C 
ATOM     25  C   LIG    1        0.368  10.773   0.065  0.00  0.00    +0.070 C 
ATOM     26  C   LIG    1       -0.651   9.649   0.059  0.00  0.00    -0.180 A 
ATOM     27  C   LIG    1       -0.514   8.283   0.052  0.00  0.00    +0.110 A 
ENDBRANCH  17  19
ENDBRANCH  15  18
ENDBRANCH   1  15
TORSDOF 5
