REMARK  Name = ZINCqH0000000klt.0
REMARK                            x       y       z     vdW  Elec       q    Type
REMARK                         _______ _______ _______ _____ _____    ______ ____
ROOT
ATOM      1  N   LIG    1        0.002  -0.004   0.002  0.00  0.00    -0.510 N 
ATOM      2  C   LIG    1        1.173  -0.669  -0.013  0.00  0.00    +0.570 A 
ATOM      3  C   LIG    1        2.392   0.078  -0.020  0.00  0.00    -0.230 A 
ATOM      4  C   LIG    1        2.301   1.471  -0.012  0.00  0.00    +0.090 A 
ATOM      5  S   LIG    1        3.919   2.164  -0.024  0.00  0.00    +0.240 S 
ATOM      6  C   LIG    1        4.655   0.570  -0.039  0.00  0.00    -0.160 A 
ATOM      7  N   LIG    1        1.092   2.062   0.003  0.00  0.00    -0.470 NA
ATOM      8  C   LIG    1        3.719  -0.380  -0.035  0.00  0.00    +0.090 A 
ATOM      9  O   LIG    1        1.194  -1.888  -0.019  0.00  0.00    -0.510 OA
ATOM     10  C   LIG    1       -0.016   1.361   0.009  0.00  0.00    +0.360 A 
ENDROOT
BRANCH   6  11
ATOM     11  C   LIG    1        6.111   0.317  -0.054  0.00  0.00    -0.010 A 
ATOM     12  C   LIG    1        6.594  -0.993  -0.061  0.00  0.00    +0.030 A 
ATOM     13  C   LIG    1        7.954  -1.223  -0.080  0.00  0.00    +0.020 A 
ATOM     14  C   LIG    1        8.839  -0.159  -0.082  0.00  0.00    +0.010 A 
ATOM     15  C   LIG    1        8.366   1.142  -0.070  0.00  0.00    +0.020 A 
ATOM     16  C   LIG    1        7.009   1.385  -0.057  0.00  0.00    +0.010 A 
ENDBRANCH   6  11
BRANCH   1  17
ATOM     17  C   LIG    1       -1.259  -0.750   0.011  0.00  0.00    +0.330 C 
BRANCH  17  19
ATOM     18  C   LIG    1       -1.952  -2.219  -1.812  0.00  0.00    +0.070 C 
ATOM     19  C   LIG    1       -1.705  -0.998  -1.407  0.00  0.00    -0.070 C 
ENDBRANCH  17  19
ENDBRANCH   1  17
BRANCH  10  20
ATOM     20  S   LIG    1       -1.566   2.200   0.021  0.00  0.00    +0.060 S 
BRANCH  20  21
ATOM     21  C   LIG    1       -0.993   3.917   0.028  0.00  0.00    -0.010 C 
ATOM     22  C   LIG    1       -2.196   4.885   0.086  0.00  0.00    +0.080 C 
ATOM     23  C   LIG    1       -1.827   5.926  -0.995  0.00  0.00    +0.270 C 
ATOM     24  O   LIG    1       -0.975   5.197  -1.927  0.00  0.00    -0.340 OA
ATOM     25  C   LIG    1       -0.295   4.244  -1.274  0.00  0.00    +0.490 C 
ATOM     26  O   LIG    1        0.723   3.724  -1.666  0.00  0.00    -0.410 OA
ENDBRANCH  20  21
ENDBRANCH  10  20
TORSDOF 5
