REMARK  Name = ZINCpk00000y6xkE.0
REMARK                            x       y       z     vdW  Elec       q    Type
REMARK                         _______ _______ _______ _____ _____    ______ ____
ROOT
ATOM      1  O   LIG    1        5.030   0.748  -2.741  0.00  0.00    -0.480 OA
ATOM      2  C   LIG    1        5.415  -0.397  -2.884  0.00  0.00    +0.560 C 
ATOM      3  N   LIG    1        4.904  -1.381  -2.117  0.00  0.00    -0.610 N 
ATOM      4  C   LIG    1        5.264  -2.784  -2.362  0.00  0.00    +0.250 C 
ATOM      5  C   LIG    1        3.978  -3.602  -2.524  0.00  0.00    +0.020 C 
ATOM      6  C   LIG    1        3.084  -3.386  -1.301  0.00  0.00    +0.030 C 
ATOM      7  C   LIG    1        2.705  -1.907  -1.198  0.00  0.00    -0.030 C 
ATOM      8  C   LIG    1        3.976  -1.070  -1.021  0.00  0.00    +0.290 C 
ENDROOT
BRANCH   2   9
ATOM      9  C   LIG    1        6.442  -0.709  -3.898  0.00  0.00    -0.120 A 
ATOM     10  C   LIG    1        7.625  -1.349  -3.524  0.00  0.00    +0.070 A 
ATOM     11  C   LIG    1        8.580  -1.638  -4.476  0.00  0.00    +0.020 A 
ATOM     12  C   LIG    1        8.372  -1.296  -5.801  0.00  0.00    +0.060 A 
ATOM     13  C   LIG    1        7.206  -0.663  -6.184  0.00  0.00    +0.010 A 
ATOM     14  C   LIG    1        6.232  -0.370  -5.242  0.00  0.00    +0.180 A 
BRANCH  14  15
ATOM     15  N   LIG    1        5.048   0.265  -5.629  0.00  0.00    -0.330 N 
ATOM     16  C   LIG    1        4.667   0.580  -6.899  0.00  0.00    +0.210 A 
ATOM     17  C   LIG    1        3.462   1.181  -6.807  0.00  0.00    +0.120 A 
ATOM     18  N   LIG    1        3.103   1.239  -5.524  0.00  0.00    -0.240 NA
ATOM     19  N   LIG    1        4.013   0.701  -4.788  0.00  0.00    -0.010 NA
ENDBRANCH  14  15
ENDBRANCH   2   9
BRANCH   7  20
ATOM     20  C   LIG    1        1.785  -1.698   0.006  0.00  0.00    +0.340 C 
BRANCH  20  21
ATOM     21  N   LIG    1        1.330  -0.305   0.037  0.00  0.00    -0.380 N 
ATOM     22  C   LIG    1        0.057   0.126   0.069  0.00  0.00    +0.470 A 
ATOM     23  N   LIG    1        0.072   1.434   0.090  0.00  0.00    -0.550 NA
ATOM     24  C   LIG    1        1.331   1.872   0.071  0.00  0.00    +0.420 A 
ATOM     25  N   LIG    1        2.137   0.844   0.039  0.00  0.00    -0.310 NA
ENDBRANCH  20  21
ENDBRANCH   7  20
TORSDOF 4
