REMARK  Name = ZINCpk00000y6vAY.0
REMARK                            x       y       z     vdW  Elec       q    Type
REMARK                         _______ _______ _______ _____ _____    ______ ____
ROOT
ATOM      1  C   LIG    1        1.510   1.862  -0.033  0.00  0.00    +0.000 C 
ATOM      2  C   LIG    1        2.114   0.740   0.838  0.00  0.00    +0.280 C 
ATOM      3  N   LIG    1        1.155  -0.374   0.841  0.00  0.00    -0.610 N 
ATOM      4  C   LIG    1        0.003  -0.009  -0.003  0.00  0.00    +0.290 C 
ATOM      5  C   LIG    1        1.305  -1.537   1.505  0.00  0.00    +0.610 C 
ATOM      6  O   LIG    1        0.404  -2.356   1.511  0.00  0.00    -0.540 OA
ATOM      7  C   LIG    1       -0.008   1.540  -0.010  0.00  0.00    +0.100 C 
ENDROOT
BRANCH   7   8
ATOM      8  C   LIG    1       -0.691   2.070  -1.245  0.00  0.00    -0.230 A 
ATOM      9  C   LIG    1       -1.774   2.880  -1.270  0.00  0.00    +0.260 A 
ATOM     10  N   LIG    1       -2.075   3.125  -2.563  0.00  0.00    -0.380 N 
ATOM     11  N   LIG    1       -1.146   2.441  -3.358  0.00  0.00    -0.290 NA
ATOM     12  C   LIG    1       -3.178   3.957  -3.048  0.00  0.00    +0.360 C 
ATOM     13  C   LIG    1       -0.313   1.814  -2.567  0.00  0.00    +0.230 A 
ENDBRANCH   7   8
BRANCH   1  17
ATOM     14  C   LIG    1        3.300   4.995   1.246  0.00  0.00    +0.290 C 
ATOM     15  N   LIG    1        3.040   3.681   0.653  0.00  0.00    -0.730 N 
ATOM     16  H   LIG    1        3.776   3.147   0.315  0.00  0.00    +0.400 HD
ATOM     17  C   LIG    1        1.778   3.214   0.577  0.00  0.00    +0.530 C 
ATOM     18  O   LIG    1        0.858   3.881   1.000  0.00  0.00    -0.530 OA
ENDBRANCH   1  17
BRANCH   5  19
ATOM     19  C   LIG    1        2.554  -1.817   2.222  0.00  0.00    -0.050 A 
ATOM     20  C   LIG    1        3.607  -0.944   2.396  0.00  0.00    +0.000 A 
ATOM     21  C   LIG    1        4.582  -1.619   3.136  0.00  0.00    -0.070 A 
ATOM     22  C   LIG    1        4.122  -2.868   3.388  0.00  0.00    +0.190 A 
ATOM     23  N   LIG    1        2.891  -3.001   2.838  0.00  0.00    -0.400 N 
BRANCH  23  24
ATOM     24  C   LIG    1        2.057  -4.204   2.891  0.00  0.00    +0.230 C 
ATOM     25  C   LIG    1        1.654  -4.482   4.340  0.00  0.00    +0.040 C 
ATOM     26  C   LIG    1        2.845  -5.396   2.343  0.00  0.00    +0.040 C 
ENDBRANCH  23  24
ENDBRANCH   5  19
TORSDOF 4
