REMARK  Name = ZINCtV000002D0zq.0
REMARK                            x       y       z     vdW  Elec       q    Type
REMARK                         _______ _______ _______ _____ _____    ______ ____
ROOT
ATOM      1  C   LIG    1        2.892  -2.504  -2.017  0.00  0.00    +0.200 A 
ATOM      2  C   LIG    1        2.037  -2.936  -0.971  0.00  0.00    -0.150 A 
ATOM      3  C   LIG    1        1.246  -2.164  -0.021  0.00  0.00    -0.030 A 
ATOM      4  C   LIG    1        0.551  -2.902   0.843  0.00  0.00    +0.010 A 
ATOM      5  S   LIG    1        0.799  -4.615   0.562  0.00  0.00    +0.200 S 
ATOM      6  C   LIG    1        1.896  -4.310  -0.777  0.00  0.00    +0.100 A 
ATOM      7  N   LIG    1        2.565  -5.152  -1.576  0.00  0.00    -0.490 NA
ATOM      8  C   LIG    1        3.346  -4.704  -2.532  0.00  0.00    +0.540 A 
ATOM      9  N   LIG    1        3.512  -3.413  -2.756  0.00  0.00    -0.530 NA
ENDROOT
BRANCH   3  10
ATOM     10  C   LIG    1        1.220  -0.682  -0.013  0.00  0.00    -0.050 A 
ATOM     11  C   LIG    1        0.002  -0.004   0.002  0.00  0.00    +0.070 A 
ATOM     12  C   LIG    1       -0.017   1.375   0.010  0.00  0.00    -0.010 A 
ATOM     13  C   LIG    1        1.172   2.087   0.002  0.00  0.00    +0.110 A 
ATOM     14  C   LIG    1        2.385   1.417  -0.013  0.00  0.00    +0.000 A 
ATOM     15  F   LIG    1        1.149   3.438   0.009  0.00  0.00    -0.140 F 
ATOM     16  C   LIG    1        2.414   0.038  -0.021  0.00  0.00    +0.070 A 
ENDBRANCH   3  10
BRANCH   1  17
ATOM     17  S   LIG    1        3.125  -0.785  -2.329  0.00  0.00    +0.080 S 
BRANCH  17  19
ATOM     18  C   LIG    1        5.594  -1.493  -3.261  0.00  0.00    +0.100 C 
ATOM     19  C   LIG    1        4.275  -0.874  -3.725  0.00  0.00    +0.110 C 
BRANCH  19  20
ATOM     20  C   LIG    1        4.530   0.514  -4.253  0.00  0.00    +0.180 A 
ATOM     21  N   LIG    1        4.772   1.577  -3.539  0.00  0.00    -0.260 NA
ATOM     22  N   LIG    1        4.945   2.589  -4.315  0.00  0.00    -0.260 NA
ATOM     23  C   LIG    1        4.809   2.204  -5.565  0.00  0.00    +0.250 A 
ATOM     24  O   LIG    1        4.543   0.881  -5.548  0.00  0.00    -0.210 OA
BRANCH  23  25
ATOM     25  C   LIG    1        4.924   3.055  -6.758  0.00  0.00    -0.160 A 
ATOM     26  C   LIG    1        5.194   4.390  -6.750  0.00  0.00    +0.100 A 
ATOM     27  C   LIG    1        5.252   4.968  -7.999  0.00  0.00    +0.020 A 
ATOM     28  C   LIG    1        5.036   4.134  -9.022  0.00  0.00    -0.010 A 
ATOM     29  S   LIG    1        4.743   2.508  -8.420  0.00  0.00    +0.170 S 
ENDBRANCH  23  25
ENDBRANCH  19  20
ENDBRANCH  17  19
ENDBRANCH   1  17
TORSDOF 5
