REMARK  Name = ZINCpe000000TAJH.0
REMARK                            x       y       z     vdW  Elec       q    Type
REMARK                         _______ _______ _______ _____ _____    ______ ____
ROOT
ATOM      1  N   LIG    1        4.313  -4.690  -1.331  0.00  0.00    -0.500 NA
ATOM      2  C   LIG    1        5.703  -4.286  -1.584  0.00  0.00    +0.170 C 
ATOM      3  C   LIG    1        6.237  -3.519  -0.369  0.00  0.00    +0.280 C 
ATOM      4  N   LIG    1        5.313  -2.414  -0.072  0.00  0.00    -0.610 N 
ATOM      5  C   LIG    1        3.881  -2.722   0.065  0.00  0.00    +0.300 C 
ATOM      6  C   LIG    1        5.767  -1.154   0.077  0.00  0.00    +0.570 C 
ATOM      7  O   LIG    1        5.001  -0.266   0.398  0.00  0.00    -0.520 OA
ATOM      8  C   LIG    1        3.439  -3.520  -1.172  0.00  0.00    +0.200 C 
ENDROOT
BRANCH   6   9
ATOM      9  C   LIG    1        7.195  -0.852  -0.150  0.00  0.00    -0.160 A 
ATOM     10  C   LIG    1        8.181  -1.576   0.523  0.00  0.00    +0.080 A 
ATOM     11  C   LIG    1        9.512  -1.289   0.308  0.00  0.00    +0.010 A 
ATOM     12  C   LIG    1        9.874  -0.284  -0.574  0.00  0.00    +0.070 A 
ATOM     13  C   LIG    1        8.905   0.438  -1.245  0.00  0.00    -0.020 A 
ATOM     14  C   LIG    1        7.566   0.162  -1.039  0.00  0.00    +0.150 A 
ATOM     15  F   LIG    1        6.620   0.869  -1.695  0.00  0.00    -0.120 F 
ENDBRANCH   6   9
BRANCH   1  16
ATOM     16  C   LIG    1        3.820  -5.574  -2.396  0.00  0.00    +0.180 C 
ATOM     17  C   LIG    1        2.327  -5.835  -2.191  0.00  0.00    +0.080 C 
BRANCH  16  23
ATOM     18  N   LIG    1        4.582  -5.842  -7.135  0.00  0.00    -0.740 N 
ATOM     19  H   LIG    1        4.569  -6.809  -7.066  0.00  0.00    +0.400 HD
ATOM     20  C   LIG    1        4.405  -5.085  -6.034  0.00  0.00    +0.690 C 
ATOM     21  N   LIG    1        4.212  -5.673  -4.836  0.00  0.00    -0.690 N 
ATOM     22  H   LIG    1        4.200  -6.640  -4.767  0.00  0.00    +0.410 HD
ATOM     23  C   LIG    1        4.036  -4.917  -3.735  0.00  0.00    +0.490 C 
ATOM     24  O   LIG    1        4.051  -3.707  -3.821  0.00  0.00    -0.460 OA
ATOM     25  O   LIG    1        4.420  -3.873  -6.120  0.00  0.00    -0.530 OA
BRANCH  18  27
ATOM     26  C   LIG    1        4.963  -6.278  -9.511  0.00  0.00    +0.030 C 
ATOM     27  C   LIG    1        4.791  -5.203  -8.437  0.00  0.00    +0.270 C 
ENDBRANCH  18  27
ENDBRANCH  16  23
ENDBRANCH   1  16
TORSDOF 4
