REMARK  Name = ZINCvU0000000In0.0
REMARK                            x       y       z     vdW  Elec       q    Type
REMARK                         _______ _______ _______ _____ _____    ______ ____
ROOT
ATOM      1  C   LIG    1        7.272   1.334   0.484  0.00  0.00    +0.140 C 
ATOM      2  C   LIG    1        7.072  -0.139   0.239  0.00  0.00    +0.200 C 
ATOM      3  C   LIG    1        5.822  -0.647   0.234  0.00  0.00    -0.280 C 
ATOM      4  C   LIG    1        5.665  -2.133  -0.022  0.00  0.00    +0.340 C 
ATOM      5  N   LIG    1        6.899  -2.906  -0.240  0.00  0.00    -0.710 N 
ATOM      6  H   LIG    1        6.864  -3.861  -0.408  0.00  0.00    +0.430 HD
ATOM      7  C   LIG    1        8.079  -2.256  -0.199  0.00  0.00    +0.710 C 
ATOM      8  O   LIG    1        9.104  -2.886  -0.377  0.00  0.00    -0.560 OA
ATOM      9  N   LIG    1        8.160  -0.940   0.031  0.00  0.00    -0.650 N 
ATOM     10  H   LIG    1        9.039  -0.531   0.048  0.00  0.00    +0.430 HD
ENDROOT
BRANCH   4  11
ATOM     11  C   LIG    1        4.942  -2.733   1.155  0.00  0.00    -0.100 A 
ATOM     12  C   LIG    1        5.628  -2.993   2.327  0.00  0.00    +0.030 A 
ATOM     13  C   LIG    1        4.967  -3.544   3.410  0.00  0.00    +0.030 A 
ATOM     14  C   LIG    1        3.620  -3.837   3.323  0.00  0.00    +0.020 A 
ATOM     15  C   LIG    1        2.929  -3.577   2.147  0.00  0.00    +0.090 A 
ATOM     16  C   LIG    1        3.593  -3.018   1.065  0.00  0.00    +0.020 A 
BRANCH  15  17
ATOM     17  O   LIG    1        1.604  -3.863   2.059  0.00  0.00    -0.250 OA
BRANCH  17  18
ATOM     18  C   LIG    1        1.238  -4.993   1.398  0.00  0.00    +0.130 A 
ATOM     19  C   LIG    1       -0.103  -5.255   1.161  0.00  0.00    +0.010 A 
ATOM     20  C   LIG    1       -0.473  -6.402   0.484  0.00  0.00    +0.070 A 
ATOM     21  C   LIG    1        0.493  -7.294   0.053  0.00  0.00    -0.070 A 
ATOM     22  C   LIG    1        1.831  -7.037   0.294  0.00  0.00    +0.070 A 
ATOM     23 CL   LIG    1        0.026  -8.738  -0.790  0.00  0.00    -0.070 Cl
ATOM     24  C   LIG    1        2.205  -5.889   0.965  0.00  0.00    -0.040 A 
ENDBRANCH  17  18
ENDBRANCH  15  17
ENDBRANCH   4  11
BRANCH   3  25
ATOM     25  C   LIG    1        4.694   0.181   0.453  0.00  0.00    +0.600 C 
ATOM     26  N   LIG    1        4.354   0.537   1.708  0.00  0.00    -0.660 N 
ATOM     27  H   LIG    1        4.947   0.333   2.448  0.00  0.00    +0.410 HD
ATOM     28  O   LIG    1        4.032   0.571  -0.491  0.00  0.00    -0.510 OA
BRANCH  26  29
ATOM     29  C   LIG    1        3.145   1.200   1.943  0.00  0.00    +0.140 A 
ATOM     30  C   LIG    1        2.477   1.022   3.147  0.00  0.00    -0.020 A 
ATOM     31  C   LIG    1        1.283   1.679   3.376  0.00  0.00    +0.030 A 
ATOM     32  C   LIG    1        0.754   2.512   2.408  0.00  0.00    -0.020 A 
ATOM     33  C   LIG    1        1.417   2.692   1.208  0.00  0.00    +0.030 A 
ATOM     34  C   LIG    1        2.611   2.038   0.972  0.00  0.00    +0.020 A 
ENDBRANCH  26  29
ENDBRANCH   3  25
TORSDOF 5
