REMARK  Name = ZINCqH00000011ic.0
REMARK                            x       y       z     vdW  Elec       q    Type
REMARK                         _______ _______ _______ _____ _____    ______ ____
ROOT
ATOM      1  C   LIG    1       -2.312  -4.263   0.001  0.00  0.00    -0.100 A 
ATOM      2  C   LIG    1       -2.335  -2.886   0.009  0.00  0.00    +0.090 A 
ATOM      3  C   LIG    1       -1.136  -2.170   0.001  0.00  0.00    -0.140 A 
ATOM      4  C   LIG    1        0.083  -2.854  -0.020  0.00  0.00    +0.050 A 
ATOM      5  C   LIG    1        0.097  -4.231  -0.022  0.00  0.00    -0.100 A 
ATOM      6  C   LIG    1       -1.098  -4.940  -0.014  0.00  0.00    +0.150 A 
ENDROOT
BRANCH   1   8
ATOM      7  C   LIG    1       -4.784  -4.062   0.026  0.00  0.00    +0.030 C 
ATOM      8  C   LIG    1       -3.605  -5.037   0.009  0.00  0.00    -0.020 C 
ATOM      9  C   LIG    1       -3.660  -5.925   1.255  0.00  0.00    +0.050 C 
ATOM     10  C   LIG    1       -3.684  -5.912  -1.244  0.00  0.00    +0.040 C 
ENDBRANCH   1   8
BRANCH   5  11
ATOM     11  C   LIG    1        1.410  -4.969  -0.039  0.00  0.00    -0.020 C 
ATOM     12  C   LIG    1        1.489  -5.841  -1.294  0.00  0.00    +0.040 C 
ATOM     13  C   LIG    1        1.514  -5.855   1.204  0.00  0.00    +0.050 C 
ATOM     14  C   LIG    1        2.562  -3.962  -0.044  0.00  0.00    +0.030 C 
ENDBRANCH   5  11
BRANCH   3  15
ATOM     15  C   LIG    1       -1.156  -0.694   0.009  0.00  0.00    +0.570 C 
ATOM     16  N   LIG    1        0.002  -0.004   0.002  0.00  0.00    -0.720 N 
ATOM     17  H   LIG    1        0.849  -0.478  -0.009  0.00  0.00    +0.410 HD
ATOM     18  O   LIG    1       -2.217  -0.100   0.023  0.00  0.00    -0.520 OA
BRANCH  16  19
ATOM     19  C   LIG    1       -0.018   1.461   0.010  0.00  0.00    +0.280 C 
ATOM     20  C   LIG    1       -0.749   1.970  -1.236  0.00  0.00    +0.040 C 
ATOM     21  C   LIG    1       -0.696   3.500  -1.259  0.00  0.00    +0.220 C 
ATOM     22  O   LIG    1        0.667   3.929  -1.237  0.00  0.00    -0.370 OA
ATOM     23  C   LIG    1        1.388   3.522  -0.072  0.00  0.00    +0.220 C 
ATOM     24  C   LIG    1        1.419   1.993  -0.001  0.00  0.00    +0.030 C 
BRANCH  19  25
ATOM     25  C   LIG    1       -0.710   1.937   1.218  0.00  0.00    +0.200 C 
ATOM     26  N   LIG    1       -1.245   2.305   2.151  0.00  0.00    -0.400 NA
ENDBRANCH  19  25
ENDBRANCH  16  19
ENDBRANCH   3  15
BRANCH   6  27
ATOM     27  O   LIG    1       -1.080  -6.297  -0.023  0.00  0.00    -0.480 OA
ATOM     28  H   LIG    1       -1.083  -6.685  -0.908  0.00  0.00    +0.390 HD
ENDBRANCH   6  27
TORSDOF 6
