REMARK  Name = ZINCkj00000y7JM7.0
REMARK                            x       y       z     vdW  Elec       q    Type
REMARK                         _______ _______ _______ _____ _____    ______ ____
ROOT
ATOM      1  C   LIG    1       -4.872   0.881   0.030  0.00  0.00    +0.340 C 
ENDROOT
BRANCH   1   4
ATOM      2  C   LIG    1       -7.630   3.176  -1.150  0.00  0.00    +0.180 A 
ATOM      3  C   LIG    1       -6.564   2.290  -1.153  0.00  0.00    -0.050 A 
ATOM      4  C   LIG    1       -6.030   1.844   0.041  0.00  0.00    -0.050 A 
ATOM      5  C   LIG    1       -6.558   2.273   1.247  0.00  0.00    +0.000 A 
ATOM      6  C   LIG    1       -7.614   3.159   1.269  0.00  0.00    +0.120 A 
ATOM      7  C   LIG    1       -8.163   3.617   0.069  0.00  0.00    -0.040 A 
BRANCH   2   9
ATOM      8  C   LIG    1       -7.559   3.123  -3.524  0.00  0.00    +0.250 C 
ATOM      9  O   LIG    1       -8.154   3.615  -2.322  0.00  0.00    -0.310 OA
ENDBRANCH   2   9
BRANCH   7  10
ATOM     10  C   LIG    1       -9.264   4.532   0.084  0.00  0.00    +0.250 C 
ATOM     11  N   LIG    1      -10.138   5.259   0.096  0.00  0.00    -0.400 NA
ENDBRANCH   7  10
ENDBRANCH   1   4
BRANCH   1  12
ATOM     12  N   LIG    1       -3.613   1.630   0.028  0.00  0.00    -0.710 N 
ATOM     13  H   LIG    1       -3.626   2.600   0.033  0.00  0.00    +0.410 HD
ATOM     14  C   LIG    1       -2.437   0.972   0.019  0.00  0.00    +0.530 C 
ATOM     15  O   LIG    1       -2.421  -0.244   0.012  0.00  0.00    -0.530 OA
BRANCH  14  16
ATOM     16  C   LIG    1       -1.173   1.725   0.017  0.00  0.00    +0.010 C 
ATOM     17  C   LIG    1       -0.013   1.076   0.008  0.00  0.00    -0.010 C 
BRANCH  17  18
ATOM     18  C   LIG    1        1.282   1.847  -0.000  0.00  0.00    +0.310 C 
BRANCH  18  19
ATOM     19  N   LIG    1        2.120   1.409   1.124  0.00  0.00    -0.390 N 
ATOM     20  C   LIG    1        3.329   2.242   1.188  0.00  0.00    +0.320 C 
ATOM     21  C   LIG    1        2.503   0.004   0.931  0.00  0.00    +0.330 C 
ATOM     22  H   LIG    1        1.603   1.501   1.985  0.00  0.00    +0.430 HD
ENDBRANCH  18  19
ENDBRANCH  17  18
ENDBRANCH  14  16
ENDBRANCH   1  12
TORSDOF 7
