REMARK  Name = ZINCrD000000D6Pd.0
REMARK                            x       y       z     vdW  Elec       q    Type
REMARK                         _______ _______ _______ _____ _____    ______ ____
ROOT
ATOM      1  C   LIG    1       -2.164   2.860   3.228  0.00  0.00    -0.770 A 
ATOM      2  C   LIG    1       -1.599   3.785   2.361  0.00  0.00    +0.200 A 
ATOM      3  C   LIG    1       -0.872   3.319   1.280  0.00  0.00    -0.060 A 
ATOM      4  C   LIG    1       -0.742   1.947   1.094  0.00  0.00    +0.370 A 
ATOM      5  N   LIG    1       -1.297   1.096   1.944  0.00  0.00    -0.530 NA
ATOM      6  C   LIG    1       -1.991   1.512   2.986  0.00  0.00    +0.400 A 
ENDROOT
BRANCH   4   7
ATOM      7  N   LIG    1       -0.018   1.464   0.010  0.00  0.00    -0.470 N 
ATOM      8  C   LIG    1        1.344   2.014   0.000  0.00  0.00    +0.200 C 
ATOM      9  C   LIG    1        2.062   1.579  -1.280  0.00  0.00    +0.050 C 
ATOM     10  C   LIG    1        2.108   0.049  -1.338  0.00  0.00    -0.010 C 
ATOM     11  C   LIG    1        0.680  -0.499  -1.278  0.00  0.00    +0.030 C 
ATOM     12  C   LIG    1        0.002  -0.004   0.002  0.00  0.00    +0.200 C 
BRANCH  10  13
ATOM     13  C   LIG    1        2.770  -0.392  -2.645  0.00  0.00    +0.070 C 
BRANCH  13  14
ATOM     14  C   LIG    1        4.213   0.043  -2.649  0.00  0.00    -0.080 A 
ATOM     15  C   LIG    1        4.561   1.277  -3.166  0.00  0.00    +0.000 A 
ATOM     16  C   LIG    1        5.883   1.679  -3.166  0.00  0.00    +0.000 A 
ATOM     17  C   LIG    1        6.860   0.842  -2.658  0.00  0.00    -0.010 A 
ATOM     18  C   LIG    1        6.512  -0.394  -2.145  0.00  0.00    +0.000 A 
ATOM     19  C   LIG    1        5.189  -0.793  -2.141  0.00  0.00    +0.000 A 
ENDBRANCH  13  14
ENDBRANCH  10  13
ENDBRANCH   4   7
BRANCH   1  21
ATOM     20  O   LIG    1       -3.555   4.709   4.317  0.00  0.00    -0.950 OA
ATOM     21  S   LIG    1       -3.094   3.401   4.624  0.00  0.00    +2.720 S 
ATOM     22  O   LIG    1       -3.963   2.330   4.966  0.00  0.00    -0.950 OA
BRANCH  21  23
ATOM     23  N   LIG    1       -2.033   3.563   5.886  0.00  0.00    -1.010 NA
ATOM     24  C   LIG    1       -1.685   2.513   6.853  0.00  0.00    +0.270 C 
ATOM     25  C   LIG    1       -0.684   3.126   7.855  0.00  0.00    +0.030 C 
ATOM     26  C   LIG    1       -0.966   4.647   7.738  0.00  0.00    +0.030 C 
ATOM     27  C   LIG    1       -1.288   4.788   6.229  0.00  0.00    +0.270 C 
ENDBRANCH  21  23
ENDBRANCH   1  21
TORSDOF 5
