REMARK  Name = ZINCrD00000F5LsZ.1
REMARK                            x       y       z     vdW  Elec       q    Type
REMARK                         _______ _______ _______ _____ _____    ______ ____
ROOT
ATOM      1  C   LIG    1       -3.766  -4.216  -2.623  0.00  0.00    -0.700 A 
ATOM      2  C   LIG    1       -2.751  -4.863  -1.942  0.00  0.00    +0.170 A 
ATOM      3  C   LIG    1       -1.788  -4.130  -1.276  0.00  0.00    -0.040 A 
ATOM      4  C   LIG    1       -1.840  -2.741  -1.291  0.00  0.00    +0.230 A 
ATOM      5  C   LIG    1       -2.865  -2.095  -1.972  0.00  0.00    -0.010 A 
ATOM      6  C   LIG    1       -3.821  -2.834  -2.640  0.00  0.00    +0.160 A 
ENDROOT
BRANCH   1   7
ATOM      7  S   LIG    1       -4.992  -5.155  -3.471  0.00  0.00    +2.690 S 
ATOM      8  O   LIG    1       -4.407  -6.419  -3.751  0.00  0.00    -0.960 OA
ATOM      9  O   LIG    1       -5.523  -4.304  -4.478  0.00  0.00    -0.950 OA
BRANCH   7  10
ATOM     10  N   LIG    1       -6.223  -5.435  -2.399  0.00  0.00    -1.000 NA
BRANCH  10  12
ATOM     11  C   LIG    1       -8.489  -4.953  -3.182  0.00  0.00    +0.010 C 
ATOM     12  C   LIG    1       -7.334  -4.486  -2.295  0.00  0.00    +0.280 C 
ENDBRANCH  10  12
BRANCH  10  13
ATOM     13  C   LIG    1       -6.201  -6.633  -1.556  0.00  0.00    +0.290 C 
ATOM     14  C   LIG    1       -5.586  -6.289  -0.198  0.00  0.00    +0.010 C 
ENDBRANCH  10  13
ENDBRANCH   7  10
ENDBRANCH   1   7
BRANCH   4  15
ATOM     15  N   LIG    1       -0.870  -1.998  -0.620  0.00  0.00    -0.500 N 
ATOM     16  H   LIG    1       -0.157  -2.451  -0.142  0.00  0.00    +0.390 HD
BRANCH  15  17
ATOM     17  N   LIG    1       -0.919  -0.710  -0.635  0.00  0.00    -0.150 NA
ATOM     18  C   LIG    1        0.002  -0.004   0.002  0.00  0.00    -0.020 C 
ATOM     19  C   LIG    1        1.099  -0.650   0.738  0.00  0.00    -0.010 C 
ATOM     20  C   LIG    1        2.247   0.030   0.953  0.00  0.00    +0.070 C 
ATOM     21  C   LIG    1        2.418   1.397   0.469  0.00  0.00    -0.020 A 
ATOM     22  C   LIG    1        3.681   2.002   0.463  0.00  0.00    +0.030 A 
ATOM     23  C   LIG    1        3.819   3.292   0.006  0.00  0.00    +0.040 A 
ATOM     24  C   LIG    1        2.720   4.008  -0.450  0.00  0.00    +0.010 A 
ATOM     25  C   LIG    1        1.466   3.437  -0.456  0.00  0.00    +0.080 A 
ATOM     26  C   LIG    1        1.304   2.131   0.001  0.00  0.00    -0.150 A 
ATOM     27  C   LIG    1       -0.018   1.478   0.010  0.00  0.00    +0.470 C 
ATOM     28  O   LIG    1       -1.058   2.114   0.019  0.00  0.00    -0.430 OA
ENDBRANCH  15  17
ENDBRANCH   4  15
TORSDOF 6
