REMARK  Name = ZINCrD00000F5Lsz.0
REMARK                            x       y       z     vdW  Elec       q    Type
REMARK                         _______ _______ _______ _____ _____    ______ ____
ROOT
ATOM      1  C   LIG    1       -3.007   0.633   6.386  0.00  0.00    +0.160 A 
ATOM      2  C   LIG    1       -1.782   0.952   5.895  0.00  0.00    +0.040 A 
ATOM      3  N   LIG    1       -1.163   1.744   6.778  0.00  0.00    -0.430 NA
ATOM      4  C   LIG    1       -1.960   1.947   7.814  0.00  0.00    +0.200 A 
ATOM      5  C   LIG    1       -1.803   2.694   9.005  0.00  0.00    +0.190 A 
ATOM      6  C   LIG    1       -2.816   2.715   9.918  0.00  0.00    -0.090 A 
ATOM      7  C   LIG    1       -3.998   1.997   9.665  0.00  0.00    +0.060 A 
ATOM      8  C   LIG    1       -4.136   1.289   8.526  0.00  0.00    +0.160 A 
ATOM      9  N   LIG    1       -3.129   1.256   7.597  0.00  0.00    -0.360 N 
ENDROOT
BRANCH   2  10
ATOM     10  C   LIG    1       -1.213   0.488   4.579  0.00  0.00    +0.080 C 
ATOM     11  C   LIG    1        0.075  -0.300   4.829  0.00  0.00    +0.030 C 
ATOM     12  C   LIG    1        0.635  -0.800   3.495  0.00  0.00    +0.010 C 
ATOM     13  C   LIG    1        0.965   0.395   2.603  0.00  0.00    +0.260 C 
ATOM     14  N   LIG    1       -0.230   1.241   2.477  0.00  0.00    -0.610 N 
ATOM     15  C   LIG    1       -0.704   1.583   1.262  0.00  0.00    +0.510 C 
ATOM     16  O   LIG    1       -1.694   2.278   1.171  0.00  0.00    -0.540 OA
ATOM     17  C   LIG    1       -0.004   1.102   0.017  0.00  0.00    +0.100 C 
ATOM     18  C   LIG    1       -0.902   1.702   3.699  0.00  0.00    +0.290 C 
ENDBRANCH   2  10
BRANCH   1  19
ATOM     19  N   LIG    1       -3.965  -0.180   5.768  0.00  0.00    -0.580 N 
ATOM     20  H   LIG    1       -3.561  -1.058   5.478  0.00  0.00    +0.370 HD
BRANCH  19  21
ATOM     21  C   LIG    1       -5.119  -0.398   6.651  0.00  0.00    +0.210 C 
BRANCH  21  23
ATOM     22  C   LIG    1       -5.980  -2.658   6.321  0.00  0.00    +0.030 C 
ATOM     23  C   LIG    1       -6.059  -1.388   6.013  0.00  0.00    -0.130 C 
ATOM     24  C   LIG    1       -7.090  -0.916   5.021  0.00  0.00    +0.080 C 
ENDBRANCH  21  23
ENDBRANCH  19  21
ENDBRANCH   1  19
BRANCH   5  25
ATOM     25  O   LIG    1       -0.655   3.383   9.237  0.00  0.00    -0.290 OA
BRANCH  25  26
ATOM     26  C   LIG    1       -0.573   4.113  10.462  0.00  0.00    +0.190 C 
BRANCH  26  27
ATOM     27  C   LIG    1        0.782   4.820  10.545  0.00  0.00    +0.260 C 
ATOM     28  F   LIG    1        0.868   5.783   9.534  0.00  0.00    -0.210 F 
ENDBRANCH  26  27
ENDBRANCH  25  26
ENDBRANCH   5  25
TORSDOF 7
