REMARK  Name = ZINCrg00000fSva5.0
REMARK                            x       y       z     vdW  Elec       q    Type
REMARK                         _______ _______ _______ _____ _____    ______ ____
ROOT
ATOM      1  C   LIG    1        4.439   5.230  -2.951  0.00  0.00    +0.270 C 
ATOM      2  C   LIG    1        3.658   6.436  -3.515  0.00  0.00    +0.090 C 
ATOM      3  C   LIG    1        4.749   7.215  -4.301  0.00  0.00    +0.190 C 
ATOM      4  C   LIG    1        5.999   6.983  -3.416  0.00  0.00    +0.240 C 
ATOM      5  N   LIG    1        5.861   5.600  -2.924  0.00  0.00    -0.600 N 
ATOM      6  C   LIG    1        6.871   4.807  -2.515  0.00  0.00    +0.540 C 
ATOM      7  O   LIG    1        6.640   3.681  -2.128  0.00  0.00    -0.510 OA
ENDROOT
BRANCH   1   8
ATOM      8  C   LIG    1        3.963   4.919  -1.555  0.00  0.00    +0.460 C 
ATOM      9  O   LIG    1        4.598   5.301  -0.601  0.00  0.00    -0.490 OA
BRANCH   8  10
ATOM     10  O   LIG    1        2.833   4.217  -1.372  0.00  0.00    -0.350 OA
BRANCH  10  11
ATOM     11  C   LIG    1        2.435   3.955  -0.000  0.00  0.00    +0.280 C 
BRANCH  11  14
ATOM     12  C   LIG    1       -1.234   3.034   0.030  0.00  0.00    +0.400 A 
ATOM     13  C   LIG    1       -0.073   3.800   0.023  0.00  0.00    -0.090 A 
ATOM     14  C   LIG    1        1.154   3.162   0.008  0.00  0.00    -0.010 A 
ATOM     15  C   LIG    1        1.179   1.774   0.000  0.00  0.00    -0.070 A 
ATOM     16  C   LIG    1       -0.013   1.076   0.008  0.00  0.00    +0.310 A 
ATOM     17  N   LIG    1       -1.169   1.711   0.017  0.00  0.00    -0.540 NA
BRANCH  12  18
ATOM     18  N   LIG    1       -2.474   3.662   0.045  0.00  0.00    -0.850 N 
ATOM     19  H   LIG    1       -3.286   3.132   0.050  0.00  0.00    +0.410 HD
ATOM     20  H   LIG    1       -2.527   4.631   0.050  0.00  0.00    +0.410 HD
ENDBRANCH  12  18
ENDBRANCH  11  14
ENDBRANCH  10  11
ENDBRANCH   8  10
ENDBRANCH   1   8
BRANCH   3  21
ATOM     21  O   LIG    1        4.429   8.606  -4.380  0.00  0.00    -0.550 OA
ATOM     22  H   LIG    1        5.125   9.148  -4.777  0.00  0.00    +0.390 HD
ENDBRANCH   3  21
BRANCH   6  23
ATOM     23  C   LIG    1        8.289   5.319  -2.540  0.00  0.00    +0.130 C 
BRANCH  23  24
ATOM     24  C   LIG    1        9.220   4.246  -2.038  0.00  0.00    -0.110 A 
ATOM     25  C   LIG    1        9.604   4.230  -0.711  0.00  0.00    +0.050 A 
ATOM     26  C   LIG    1       10.454   3.242  -0.249  0.00  0.00    +0.000 A 
ATOM     27  C   LIG    1       10.928   2.276  -1.115  0.00  0.00    +0.040 A 
ATOM     28  C   LIG    1       10.550   2.293  -2.445  0.00  0.00    -0.010 A 
ATOM     29  C   LIG    1        9.694   3.278  -2.908  0.00  0.00    +0.110 A 
ATOM     30  F   LIG    1        9.324   3.296  -4.207  0.00  0.00    -0.140 F 
ENDBRANCH  23  24
ENDBRANCH   6  23
TORSDOF 8
