REMARK  Name = ZINCrg000000ruTn.0
REMARK                            x       y       z     vdW  Elec       q    Type
REMARK                         _______ _______ _______ _____ _____    ______ ____
ROOT
ATOM      1  N   LIG    1       -4.950   1.530  -0.927  0.00  0.00    -0.520 NA
ATOM      2  C   LIG    1       -5.356   2.929  -0.734  0.00  0.00    +0.190 C 
ATOM      3  C   LIG    1       -6.033   3.441  -2.007  0.00  0.00    +0.190 C 
ATOM      4  N   LIG    1       -7.195   2.596  -2.315  0.00  0.00    -0.520 NA
ATOM      5  C   LIG    1       -6.789   1.197  -2.508  0.00  0.00    +0.190 C 
ATOM      6  C   LIG    1       -6.112   0.685  -1.235  0.00  0.00    +0.190 C 
ENDROOT
BRANCH   1   7
ATOM      7  C   LIG    1       -4.228   1.024   0.248  0.00  0.00    +0.220 C 
BRANCH   7  10
ATOM      8  N   LIG    1       -2.083   1.459   1.402  0.00  0.00    -0.720 N 
ATOM      9  H   LIG    1       -2.325   0.771   2.042  0.00  0.00    +0.410 HD
ATOM     10  C   LIG    1       -2.919   1.758   0.388  0.00  0.00    +0.520 C 
ATOM     11  O   LIG    1       -2.618   2.618  -0.413  0.00  0.00    -0.510 OA
BRANCH   8  13
ATOM     12  C   LIG    1        0.035   1.948   0.283  0.00  0.00    +0.080 C 
ATOM     13  C   LIG    1       -0.811   2.172   1.538  0.00  0.00    +0.310 C 
BRANCH  13  14
ATOM     14  C   LIG    1       -0.059   1.645   2.761  0.00  0.00    -0.040 C 
ATOM     15  C   LIG    1        0.193   2.623   3.911  0.00  0.00    +0.030 C 
ATOM     16  C   LIG    1        1.351   2.185   3.010  0.00  0.00    +0.050 C 
ENDBRANCH  13  14
BRANCH  13  17
ATOM     17  C   LIG    1       -1.071   3.612   1.703  0.00  0.00    +0.200 C 
ATOM     18  N   LIG    1       -1.272   4.722   1.831  0.00  0.00    -0.410 NA
ENDBRANCH  13  17
ENDBRANCH   8  13
ENDBRANCH   7  10
ENDBRANCH   1   7
BRANCH   4  19
ATOM     19  C   LIG    1       -7.918   3.102  -3.490  0.00  0.00    +0.220 C 
BRANCH  19  20
ATOM     20  C   LIG    1       -9.232   2.377  -3.622  0.00  0.00    +0.510 C 
ATOM     21  N   LIG    1      -10.009   2.583  -4.704  0.00  0.00    -0.680 N 
ATOM     22  H   LIG    1       -9.694   3.146  -5.428  0.00  0.00    +0.410 HD
ATOM     23  O   LIG    1       -9.590   1.608  -2.755  0.00  0.00    -0.500 OA
BRANCH  21  24
ATOM     24  C   LIG    1      -11.272   1.985  -4.782  0.00  0.00    +0.140 A 
ATOM     25  C   LIG    1      -11.474   0.716  -4.256  0.00  0.00    +0.020 A 
ATOM     26  C   LIG    1      -12.723   0.130  -4.330  0.00  0.00    +0.030 A 
ATOM     27  C   LIG    1      -13.768   0.802  -4.937  0.00  0.00    -0.010 A 
ATOM     28  C   LIG    1      -13.569   2.063  -5.467  0.00  0.00    +0.030 A 
ATOM     29  C   LIG    1      -12.323   2.656  -5.391  0.00  0.00    -0.030 A 
ENDBRANCH  21  24
ENDBRANCH  19  20
ENDBRANCH   4  19
TORSDOF 8
