REMARK  Name = ZINCrD000000Bve4.0
REMARK                            x       y       z     vdW  Elec       q    Type
REMARK                         _______ _______ _______ _____ _____    ______ ____
ROOT
ATOM      1  O   LIG    1        3.179  -4.420   1.319  0.00  0.00    -0.520 OA
ATOM      2  C   LIG    1        3.910  -5.369   1.530  0.00  0.00    +0.580 C 
ATOM      3  N   LIG    1        4.389  -6.092   0.498  0.00  0.00    -0.710 N 
ATOM      4  H   LIG    1        5.029  -6.803   0.661  0.00  0.00    +0.410 HD
ENDROOT
BRANCH   2   5
ATOM      5  C   LIG    1        4.271  -5.726   2.910  0.00  0.00    +0.040 A 
ATOM      6  C   LIG    1        4.990  -6.835   3.309  0.00  0.00    -0.050 A 
ATOM      7  C   LIG    1        5.108  -6.786   4.696  0.00  0.00    +0.100 A 
ATOM      8  N   LIG    1        4.492  -5.717   5.135  0.00  0.00    -0.250 NA
ATOM      9  N   LIG    1        3.953  -5.026   4.043  0.00  0.00    -0.290 N 
BRANCH   9  10
ATOM     10  C   LIG    1        3.221  -3.833   4.098  0.00  0.00    +0.130 A 
ATOM     11  C   LIG    1        3.494  -2.806   3.205  0.00  0.00    +0.060 A 
ATOM     12  C   LIG    1        2.767  -1.633   3.259  0.00  0.00    +0.020 A 
ATOM     13  C   LIG    1        1.775  -1.477   4.210  0.00  0.00    +0.020 A 
ATOM     14  C   LIG    1        1.503  -2.496   5.104  0.00  0.00    +0.020 A 
ATOM     15  C   LIG    1        2.223  -3.673   5.051  0.00  0.00    +0.030 A 
ENDBRANCH   9  10
BRANCH   7  16
ATOM     16  C   LIG    1        5.823  -7.800   5.552  0.00  0.00    +0.040 C 
ATOM     17  C   LIG    1        6.146  -9.155   4.920  0.00  0.00    +0.040 C 
ATOM     18  C   LIG    1        5.041  -9.046   5.972  0.00  0.00    +0.040 C 
ENDBRANCH   7  16
ENDBRANCH   2   5
BRANCH   3  19
ATOM     19  C   LIG    1        3.943  -5.806  -0.867  0.00  0.00    +0.390 C 
BRANCH  19  20
ATOM     20  C   LIG    1        4.622  -6.749  -1.826  0.00  0.00    +0.040 A 
ATOM     21  C   LIG    1        4.111  -7.914  -2.282  0.00  0.00    +0.120 A 
ATOM     22  N   LIG    1        5.040  -8.461  -3.124  0.00  0.00    -0.360 N 
ATOM     23  C   LIG    1        5.058  -9.613  -3.856  0.00  0.00    +0.220 A 
ATOM     24  C   LIG    1        6.123  -9.922  -4.625  0.00  0.00    +0.010 A 
ATOM     25  C   LIG    1        7.231  -9.061  -4.680  0.00  0.00    +0.050 A 
ATOM     26  C   LIG    1        7.227  -7.910  -3.955  0.00  0.00    +0.070 A 
ATOM     27  C   LIG    1        6.106  -7.600  -3.158  0.00  0.00    +0.230 A 
ATOM     28  N   LIG    1        5.831  -6.574  -2.366  0.00  0.00    -0.480 NA
ENDBRANCH  19  20
ENDBRANCH   3  19
TORSDOF 5
