REMARK  Name = ZINCqH0000032C1z.0
REMARK                            x       y       z     vdW  Elec       q    Type
REMARK                         _______ _______ _______ _____ _____    ______ ____
ROOT
ATOM      1  C   LIG    1       -5.389  -5.063   3.390  0.00  0.00    +0.080 C 
ATOM      2  C   LIG    1       -4.176  -4.181   3.088  0.00  0.00    +0.100 C 
ATOM      3  C   LIG    1       -4.578  -3.072   2.116  0.00  0.00    +0.290 C 
ATOM      4  N   LIG    1       -3.364  -2.355   1.693  0.00  0.00    -0.630 N 
ATOM      5  C   LIG    1       -2.226  -3.151   1.206  0.00  0.00    +0.280 C 
ATOM      6  C   LIG    1       -1.937  -4.257   2.227  0.00  0.00    +0.140 C 
ATOM      7  C   LIG    1       -3.295  -1.011   1.755  0.00  0.00    +0.710 C 
ATOM      8  N   LIG    1       -2.214  -0.369   1.270  0.00  0.00    -0.740 N 
ATOM      9  H   LIG    1       -1.454  -0.876   0.943  0.00  0.00    +0.390 HD
ATOM     10  O   LIG    1       -4.208  -0.377   2.248  0.00  0.00    -0.570 OA
ATOM     11  C   LIG    1       -3.662  -3.557   4.388  0.00  0.00    +0.030 C 
ATOM     12  O   LIG    1       -3.143  -4.974   2.499  0.00  0.00    -0.350 OA
ENDROOT
BRANCH   8  13
ATOM     13  C   LIG    1       -2.185   1.096   1.238  0.00  0.00    +0.260 C 
ATOM     14  C   LIG    1       -2.860   1.595  -0.043  0.00  0.00    -0.000 C 
ATOM     15  C   LIG    1       -2.066   1.101  -1.255  0.00  0.00    +0.210 C 
ATOM     16  O   LIG    1       -0.716   1.561  -1.158  0.00  0.00    -0.370 OA
ATOM     17  C   LIG    1       -0.020   1.087  -0.004  0.00  0.00    +0.240 C 
ATOM     18  C   LIG    1       -0.732   1.580   1.258  0.00  0.00    +0.040 C 
BRANCH  17  19
ATOM     19  C   LIG    1        1.394   1.609  -0.020  0.00  0.00    -0.180 A 
ATOM     20  C   LIG    1        2.475   0.912   0.335  0.00  0.00    +0.010 A 
ATOM     21  C   LIG    1        3.671   1.602   0.237  0.00  0.00    +0.000 A 
ATOM     22  C   LIG    1        3.562   2.859  -0.196  0.00  0.00    -0.050 A 
ATOM     23  S   LIG    1        1.872   3.227  -0.515  0.00  0.00    +0.140 S 
ENDBRANCH  17  19
ENDBRANCH   8  13
BRANCH   6  24
ATOM     24  C   LIG    1       -0.887  -5.215   1.660  0.00  0.00    +0.470 C 
ATOM     25  F   LIG    1       -1.369  -5.787   0.478  0.00  0.00    -0.170 F 
ATOM     26  F   LIG    1       -0.624  -6.223   2.593  0.00  0.00    -0.170 F 
ATOM     27  F   LIG    1        0.290  -4.510   1.390  0.00  0.00    -0.170 F 
ENDBRANCH   6  24
TORSDOF 3
