REMARK  Name = ZINCvU000000083c.0
REMARK                            x       y       z     vdW  Elec       q    Type
REMARK                         _______ _______ _______ _____ _____    ______ ____
ROOT
ATOM      1  C   LIG    1       -4.819   2.309   0.061  0.00  0.00    +0.600 C 
ATOM      2  N   LIG    1       -5.422   1.109  -0.042  0.00  0.00    -0.610 N 
ATOM      3  C   LIG    1       -4.634  -0.133  -0.066  0.00  0.00    +0.310 C 
ATOM      4  C   LIG    1       -5.212  -1.091   0.988  0.00  0.00    +0.190 C 
ATOM      5  N   LIG    1       -6.651  -1.265   0.748  0.00  0.00    -0.490 N 
ATOM      6  C   LIG    1       -7.375   0.003   0.910  0.00  0.00    +0.190 C 
ATOM      7  C   LIG    1       -6.886   1.006  -0.140  0.00  0.00    +0.310 C 
ATOM      8  O   LIG    1       -5.487   3.315   0.208  0.00  0.00    -0.510 OA
ENDROOT
BRANCH   1  14
ATOM      9  C   LIG    1        1.168   3.177  -0.076  0.00  0.00    +0.120 A 
ATOM     10  C   LIG    1        1.156   1.829  -0.425  0.00  0.00    -0.020 A 
ATOM     11  C   LIG    1       -0.033   1.141  -0.532  0.00  0.00    +0.070 A 
ATOM     12  C   LIG    1       -1.238   1.792  -0.296  0.00  0.00    +0.030 A 
ATOM     13  O   LIG    1       -2.523   1.387  -0.318  0.00  0.00    -0.180 OA
ATOM     14  C   LIG    1       -3.353   2.403  -0.004  0.00  0.00    -0.040 A 
ATOM     15  C   LIG    1       -2.630   3.526   0.244  0.00  0.00    -0.070 A 
ATOM     16  C   LIG    1       -3.165   4.881   0.629  0.00  0.00    +0.150 C 
ATOM     17  C   LIG    1       -1.228   3.153   0.062  0.00  0.00    -0.100 A 
ATOM     18  C   LIG    1       -0.017   3.842   0.168  0.00  0.00    +0.040 A 
BRANCH   9  19
ATOM     19  O   LIG    1        2.351   3.841   0.025  0.00  0.00    -0.310 OA
BRANCH  19  21
ATOM     20  C   LIG    1        4.760   4.001  -0.079  0.00  0.00    +0.070 C 
ATOM     21  C   LIG    1        3.539   3.093  -0.241  0.00  0.00    +0.170 C 
ENDBRANCH  19  21
ENDBRANCH   9  19
ENDBRANCH   1  14
BRANCH   5  22
ATOM     22  C   LIG    1       -7.181  -2.254   1.578  0.00  0.00    +0.110 A 
ATOM     23  C   LIG    1       -8.255  -1.964   2.409  0.00  0.00    +0.000 A 
ATOM     24  C   LIG    1       -8.777  -2.945   3.229  0.00  0.00    +0.050 A 
ATOM     25  C   LIG    1       -8.232  -4.216   3.223  0.00  0.00    +0.040 A 
ATOM     26  C   LIG    1       -7.163  -4.508   2.396  0.00  0.00    -0.160 A 
ATOM     27  C   LIG    1       -6.639  -3.534   1.571  0.00  0.00    +0.050 A 
BRANCH  26  28
ATOM     28  C   LIG    1       -6.572  -5.895   2.392  0.00  0.00    +0.510 C 
ATOM     29  F   LIG    1       -5.226  -5.830   2.766  0.00  0.00    -0.180 F 
ATOM     30  F   LIG    1       -6.674  -6.441   1.108  0.00  0.00    -0.170 F 
ATOM     31  F   LIG    1       -7.269  -6.701   3.299  0.00  0.00    -0.180 F 
ENDBRANCH  26  28
ENDBRANCH   5  22
TORSDOF 5
