REMARK  Name = ZINCrH000004mUj0.0
REMARK                            x       y       z     vdW  Elec       q    Type
REMARK                         _______ _______ _______ _____ _____    ______ ____
ROOT
ATOM      1  C   LIG    1        2.520   5.594   0.007  0.00  0.00    +0.190 C 
ATOM      2  C   LIG    1        2.616   6.122  -1.436  0.00  0.00    +0.020 C 
ATOM      3  C   LIG    1        1.373   7.023  -1.620  0.00  0.00    +0.020 C 
ATOM      4  C   LIG    1        0.995   7.394  -0.164  0.00  0.00    +0.180 C 
ATOM      5  N   LIG    1        1.276   6.144   0.589  0.00  0.00    -0.490 NA
ENDROOT
BRANCH   1  10
ATOM      6  C   LIG    1        1.186   2.059   0.002  0.00  0.00    +0.090 A 
ATOM      7  C   LIG    1        2.359   1.319  -0.008  0.00  0.00    -0.040 A 
ATOM      8  C   LIG    1        3.581   1.963  -0.022  0.00  0.00    -0.040 A 
ATOM      9  C   LIG    1        3.635   3.349  -0.015  0.00  0.00    +0.090 A 
ATOM     10  C   LIG    1        2.462   4.088   0.001  0.00  0.00    -0.070 A 
ATOM     11  C   LIG    1        1.240   3.445   0.009  0.00  0.00    +0.070 A 
BRANCH   6  13
ATOM     12  C   LIG    1        0.002  -0.004   0.002  0.00  0.00    +0.230 C 
ATOM     13  O   LIG    1       -0.017   1.425   0.010  0.00  0.00    -0.320 OA
ENDBRANCH   6  13
BRANCH   9  14
ATOM     14  O   LIG    1        4.838   3.983  -0.023  0.00  0.00    -0.320 OA
ATOM     15  C   LIG    1        6.005   3.159  -0.039  0.00  0.00    +0.230 C 
ENDBRANCH   9  14
ENDBRANCH   1  10
BRANCH   5  16
ATOM     16  C   LIG    1        1.441   6.418   2.022  0.00  0.00    +0.210 C 
BRANCH  16  17
ATOM     17  C   LIG    1        0.253   7.198   2.525  0.00  0.00    +0.520 C 
ATOM     18  N   LIG    1        0.186   7.564   3.820  0.00  0.00    -0.730 N 
ATOM     19  H   LIG    1        0.903   7.326   4.429  0.00  0.00    +0.400 HD
ATOM     20  O   LIG    1       -0.643   7.495   1.763  0.00  0.00    -0.520 OA
BRANCH  18  21
ATOM     21  C   LIG    1       -0.969   8.322   4.308  0.00  0.00    +0.290 C 
ATOM     22  C   LIG    1       -0.747   9.813   4.050  0.00  0.00    +0.040 C 
BRANCH  21  23
ATOM     23  C   LIG    1       -1.134   8.087   5.788  0.00  0.00    -0.090 A 
ATOM     24  C   LIG    1       -0.022   8.023   6.606  0.00  0.00    +0.000 A 
ATOM     25  C   LIG    1       -0.174   7.812   7.964  0.00  0.00    +0.000 A 
ATOM     26  C   LIG    1       -1.438   7.656   8.502  0.00  0.00    +0.000 A 
ATOM     27  C   LIG    1       -2.550   7.716   7.683  0.00  0.00    +0.020 A 
ATOM     28  C   LIG    1       -2.398   7.931   6.326  0.00  0.00    +0.020 A 
ENDBRANCH  21  23
ENDBRANCH  18  21
ENDBRANCH  16  17
ENDBRANCH   5  16
TORSDOF 7
