REMARK  Name = ZINCkj000005llVJ.0
REMARK                            x       y       z     vdW  Elec       q    Type
REMARK                         _______ _______ _______ _____ _____    ______ ____
ROOT
ATOM      1  C   LIG    1       -1.697  -4.042   3.174  0.00  0.00    +0.130 C 
ATOM      2  C   LIG    1       -0.595  -3.201   2.529  0.00  0.00    +0.280 C 
ATOM      3  N   LIG    1        0.143  -2.500   3.591  0.00  0.00    -0.640 N 
ATOM      4  C   LIG    1        0.628  -3.290   4.734  0.00  0.00    +0.280 C 
ATOM      5  C   LIG    1       -0.538  -4.125   5.274  0.00  0.00    +0.240 C 
ATOM      6  C   LIG    1        0.364  -1.172   3.523  0.00  0.00    +0.710 C 
ATOM      7  N   LIG    1       -0.175  -0.450   2.520  0.00  0.00    -0.740 N 
ATOM      8  H   LIG    1       -0.658  -0.896   1.807  0.00  0.00    +0.390 HD
ATOM      9  O   LIG    1        1.048  -0.625   4.366  0.00  0.00    -0.570 OA
ATOM     10  O   LIG    1       -1.129  -4.860   4.199  0.00  0.00    -0.390 OA
ENDROOT
BRANCH   1  11
ATOM     11  C   LIG    1       -2.352  -4.931   2.115  0.00  0.00    +0.300 C 
BRANCH  11  12
ATOM     12  N   LIG    1       -3.486  -5.649   2.711  0.00  0.00    -0.630 N 
ATOM     13  H   LIG    1       -4.161  -4.984   3.056  0.00  0.00    +0.440 HD
ATOM     14  H   LIG    1       -3.157  -6.222   3.474  0.00  0.00    +0.440 HD
ATOM     15  H   LIG    1       -3.917  -6.236   2.013  0.00  0.00    +0.440 HD
ENDBRANCH  11  12
ENDBRANCH   1  11
BRANCH   7  16
ATOM     16  C   LIG    1       -0.029   1.007   2.506  0.00  0.00    +0.280 C 
BRANCH  16  17
ATOM     17  C   LIG    1       -0.726   1.578   1.269  0.00  0.00    -0.010 C 
ATOM     18  C   LIG    1       -0.011   1.087   0.009  0.00  0.00    +0.020 C 
ATOM     19  C   LIG    1       -0.747   1.592  -1.233  0.00  0.00    +0.000 C 
ATOM     20  C   LIG    1       -0.703   3.123  -1.265  0.00  0.00    +0.060 C 
ATOM     21  C   LIG    1       -1.306   3.663   0.036  0.00  0.00    -0.120 C 
ATOM     22  C   LIG    1       -2.803   3.970   0.051  0.00  0.00    +0.010 C 
ATOM     23  C   LIG    1       -1.786   5.114   0.049  0.00  0.00    +0.030 C 
ATOM     24  C   LIG    1       -0.680   3.108   1.319  0.00  0.00    +0.070 C 
ENDBRANCH  16  17
ENDBRANCH   7  16
TORSDOF 4
