REMARK  Name = ZINCkj000005iGFi.1
REMARK                            x       y       z     vdW  Elec       q    Type
REMARK                         _______ _______ _______ _____ _____    ______ ____
ROOT
ATOM      1  C   LIG    1       -2.012   2.471   3.529  0.00  0.00    +0.160 A 
ATOM      2  C   LIG    1       -0.876   3.120   3.070  0.00  0.00    -0.060 A 
ATOM      3  C   LIG    1       -0.232   2.670   1.933  0.00  0.00    +0.110 A 
ATOM      4  C   LIG    1       -0.718   1.572   1.248  0.00  0.00    -0.220 A 
ATOM      5  C   LIG    1       -1.857   0.920   1.697  0.00  0.00    +0.150 A 
ATOM      6  C   LIG    1       -2.504   1.366   2.843  0.00  0.00    +0.040 A 
ENDROOT
BRANCH   1   8
ATOM      7  C   LIG    1       -2.083   4.054   5.302  0.00  0.00    +0.260 C 
ATOM      8  O   LIG    1       -2.644   2.914   4.649  0.00  0.00    -0.290 OA
ENDBRANCH   1   8
BRANCH   5   9
ATOM      9  O   LIG    1       -2.337  -0.156   1.019  0.00  0.00    -0.490 OA
ATOM     10  H   LIG    1       -1.976  -1.002   1.317  0.00  0.00    +0.410 HD
ENDBRANCH   5   9
BRANCH   6  11
ATOM     11  O   LIG    1       -3.619   0.727   3.290  0.00  0.00    -0.320 OA
ATOM     12  C   LIG    1       -4.876   1.188   2.790  0.00  0.00    +0.240 C 
ENDBRANCH   6  11
BRANCH   4  13
ATOM     13  C   LIG    1       -0.013   1.086   0.008  0.00  0.00    +0.340 C 
BRANCH  13  14
ATOM     14  N   LIG    1       -0.723   1.572  -1.182  0.00  0.00    -0.390 N 
ATOM     15  C   LIG    1       -2.050   0.914  -1.301  0.00  0.00    +0.290 C 
ATOM     16  C   LIG    1       -2.420   1.054  -2.794  0.00  0.00    +0.080 C 
ATOM     17  C   LIG    1       -1.074   1.225  -3.528  0.00  0.00    +0.110 C 
ATOM     18  F   LIG    1       -1.032   2.459  -4.185  0.00  0.00    -0.170 F 
ATOM     19  C   LIG    1       -0.002   1.172  -2.418  0.00  0.00    +0.280 C 
ATOM     20  H   LIG    1       -0.829   2.575  -1.145  0.00  0.00    +0.430 HD
BRANCH  17  21
ATOM     21  C   LIG    1       -0.861   0.085  -4.526  0.00  0.00    +0.210 C 
BRANCH  21  22
ATOM     22  O   LIG    1       -1.862   0.151  -5.544  0.00  0.00    -0.560 OA
ATOM     23  H   LIG    1       -1.788  -0.543  -6.213  0.00  0.00    +0.400 HD
ENDBRANCH  21  22
ENDBRANCH  17  21
ENDBRANCH  13  14
ENDBRANCH   4  13
TORSDOF 7
