REMARK  Name = ZINCkj000005iGFi.2
REMARK                            x       y       z     vdW  Elec       q    Type
REMARK                         _______ _______ _______ _____ _____    ______ ____
ROOT
ATOM      1  C   LIG    1       -0.130   6.047   2.256  0.00  0.00    +0.160 A 
ATOM      2  C   LIG    1       -0.823   5.675   1.114  0.00  0.00    -0.050 A 
ATOM      3  C   LIG    1       -0.262   4.779   0.224  0.00  0.00    +0.100 A 
ATOM      4  C   LIG    1        0.992   4.250   0.468  0.00  0.00    -0.220 A 
ATOM      5  C   LIG    1        1.689   4.612   1.611  0.00  0.00    +0.150 A 
ATOM      6  C   LIG    1        1.130   5.517   2.505  0.00  0.00    +0.040 A 
ENDROOT
BRANCH   1   8
ATOM      7  C   LIG    1       -1.981   7.433   2.811  0.00  0.00    +0.260 C 
ATOM      8  O   LIG    1       -0.683   6.929   3.131  0.00  0.00    -0.290 OA
ENDBRANCH   1   8
BRANCH   5   9
ATOM      9  O   LIG    1        2.920   4.087   1.853  0.00  0.00    -0.490 OA
ATOM     10  H   LIG    1        3.648   4.604   1.483  0.00  0.00    +0.410 HD
ENDBRANCH   5   9
BRANCH   6  11
ATOM     11  O   LIG    1        1.813   5.879   3.625  0.00  0.00    -0.320 OA
ATOM     12  C   LIG    1        1.607   5.085   4.796  0.00  0.00    +0.240 C 
ENDBRANCH   6  11
BRANCH   4  13
ATOM     13  C   LIG    1        1.599   3.273  -0.506  0.00  0.00    +0.340 C 
BRANCH  13  14
ATOM     14  N   LIG    1        1.422   1.905  -0.001  0.00  0.00    -0.390 N 
ATOM     15  C   LIG    1       -0.019   1.545   0.011  0.00  0.00    +0.270 C 
ATOM     16  C   LIG    1        0.002  -0.004   0.002  0.00  0.00    +0.090 C 
ATOM     17  C   LIG    1        1.195  -0.329  -0.927  0.00  0.00    +0.110 C 
ATOM     18  F   LIG    1        0.742  -0.593  -2.224  0.00  0.00    -0.170 F 
ATOM     19  C   LIG    1        2.072   0.937  -0.912  0.00  0.00    +0.270 C 
ATOM     20  H   LIG    1        1.809   1.822   0.927  0.00  0.00    +0.430 HD
BRANCH  17  21
ATOM     21  C   LIG    1        1.980  -1.525  -0.385  0.00  0.00    +0.200 C 
BRANCH  21  22
ATOM     22  O   LIG    1        1.130  -2.673  -0.344  0.00  0.00    -0.560 OA
ATOM     23  H   LIG    1        1.563  -3.471  -0.010  0.00  0.00    +0.400 HD
ENDBRANCH  21  22
ENDBRANCH  17  21
ENDBRANCH  13  14
ENDBRANCH   4  13
TORSDOF 7
