REMARK  Name = ZINCpk00001zlj2U.0
REMARK                            x       y       z     vdW  Elec       q    Type
REMARK                         _______ _______ _______ _____ _____    ______ ____
ROOT
ATOM      1  C   LIG    1       -0.452   1.108  -3.366  0.00  0.00    +0.200 C 
ATOM      2  C   LIG    1        0.040  -0.274  -2.932  0.00  0.00    +0.040 C 
ENDROOT
BRANCH   1   7
ATOM      3  N   LIG    1        0.321   0.913  -5.789  0.00  0.00    -0.290 N 
ATOM      4  N   LIG    1        1.073   1.609  -6.572  0.00  0.00    -0.080 NA
ATOM      5  N   LIG    1        1.510   2.633  -5.926  0.00  0.00    -0.080 NA
ATOM      6  N   LIG    1        1.043   2.613  -4.726  0.00  0.00    -0.280 NA
ATOM      7  C   LIG    1        0.296   1.543  -4.600  0.00  0.00    +0.180 A 
BRANCH   3   9
ATOM      8  C   LIG    1       -1.342  -0.073  -7.286  0.00  0.00    +0.070 C 
ATOM      9  C   LIG    1       -0.375  -0.331  -6.129  0.00  0.00    +0.250 C 
ATOM     10  C   LIG    1        0.647  -1.390  -6.545  0.00  0.00    +0.070 C 
ENDBRANCH   3   9
ENDBRANCH   1   7
BRANCH   1  11
ATOM     11  N   LIG    1       -0.216   2.074  -2.284  0.00  0.00    -0.630 NA
ATOM     12  H   LIG    1        0.771   2.183  -2.106  0.00  0.00    +0.370 HD
BRANCH  11  13
ATOM     13  C   LIG    1       -0.931   1.681  -1.063  0.00  0.00    +0.250 C 
ATOM     14  C   LIG    1       -0.013   1.086   0.008  0.00  0.00    -0.360 C 
ATOM     15  S   LIG    1       -1.077   1.777   1.305  0.00  0.00    +2.400 S 
ATOM     16  O   LIG    1       -0.338   2.376   2.361  0.00  0.00    -0.910 OA
ATOM     17  O   LIG    1       -2.240   0.995   1.537  0.00  0.00    -0.910 OA
ATOM     18  C   LIG    1       -1.235   2.858  -0.140  0.00  0.00    -0.520 C 
ATOM     19  C   LIG    1       -2.630   3.480  -0.326  0.00  0.00    +0.060 C 
ATOM     20  C   LIG    1       -2.447   4.955   0.113  0.00  0.00    +0.010 C 
ATOM     21  C   LIG    1       -1.034   5.299  -0.422  0.00  0.00    +0.020 C 
ATOM     22  C   LIG    1       -0.219   4.007  -0.199  0.00  0.00    +0.090 C 
ENDBRANCH  11  13
ENDBRANCH   1  11
BRANCH   1  23
ATOM     23  C   LIG    1       -1.950   1.043  -3.674  0.00  0.00    +0.060 C 
BRANCH  23  24
ATOM     24  C   LIG    1       -2.442   2.425  -4.107  0.00  0.00    +0.210 C 
BRANCH  24  25
ATOM     25  C   LIG    1       -3.882   2.363  -4.404  0.00  0.00    +0.200 C 
ATOM     26  N   LIG    1       -4.994   2.315  -4.632  0.00  0.00    -0.420 NA
ENDBRANCH  24  25
ENDBRANCH  23  24
ENDBRANCH   1  23
TORSDOF 7
