REMARK  Name = ZINCbw0000000HiG.1
REMARK                            x       y       z     vdW  Elec       q    Type
REMARK                         _______ _______ _______ _____ _____    ______ ____
ROOT
ATOM      1  C   LIG    1       -1.246   2.206   0.020  0.00  0.00    +0.160 C 
ATOM      2  C   LIG    1       -0.016   1.336   0.009  0.00  0.00    +0.130 A 
ATOM      3  C   LIG    1        1.293   1.779  -0.001  0.00  0.00    -0.210 A 
ATOM      4  C   LIG    1        1.915   3.046   0.000  0.00  0.00    +0.130 A 
ATOM      5  C   LIG    1        3.269   3.127  -0.012  0.00  0.00    -0.130 A 
ATOM      6  C   LIG    1        4.073   1.984  -0.026  0.00  0.00    +0.080 A 
ATOM      7  C   LIG    1        3.542   0.736  -0.028  0.00  0.00    +0.050 A 
ATOM      8 BR   LIG    1        4.091   4.830  -0.012  0.00  0.00    -0.050 Br
ATOM      9  C   LIG    1        2.139   0.575  -0.015  0.00  0.00    +0.110 A 
ATOM     10  N   LIG    1        1.324  -0.464  -0.013  0.00  0.00    -0.300 NA
ATOM     11  N   LIG    1        0.002  -0.004   0.002  0.00  0.00    -0.420 N 
ATOM     12  H   LIG    1       -0.785  -0.572   0.006  0.00  0.00    +0.450 HD
ENDROOT
TORSDOF 0
