REMARK  Name = ZINCbw0000000HiG.0
REMARK                            x       y       z     vdW  Elec       q    Type
REMARK                         _______ _______ _______ _____ _____    ______ ____
ROOT
ATOM      1  C   LIG    1        1.925  -3.233  -0.033  0.00  0.00    +0.170 C 
ATOM      2  C   LIG    1        0.926  -2.105  -0.018  0.00  0.00    +0.110 A 
ATOM      3  N   LIG    1       -0.371  -2.229  -0.006  0.00  0.00    -0.250 NA
ATOM      4  N   LIG    1       -0.974  -0.967   0.007  0.00  0.00    -0.510 N 
ATOM      5  H   LIG    1       -1.929  -0.800   0.017  0.00  0.00    +0.440 HD
ATOM      6  C   LIG    1        0.002  -0.004   0.002  0.00  0.00    +0.140 A 
ATOM      7  C   LIG    1       -0.017   1.388   0.010  0.00  0.00    +0.010 A 
ATOM      8  C   LIG    1        1.159   2.085   0.002  0.00  0.00    +0.100 A 
ATOM      9  C   LIG    1        2.379   1.420  -0.013  0.00  0.00    -0.130 A 
ATOM     10  C   LIG    1        2.428   0.055  -0.021  0.00  0.00    +0.140 A 
ATOM     11 BR   LIG    1        3.987   2.415  -0.022  0.00  0.00    -0.050 Br
ATOM     12  C   LIG    1        1.238  -0.680  -0.013  0.00  0.00    -0.180 A 
ENDROOT
TORSDOF 0
