REMARK  Name = ZINCqH0000008bbz.0
REMARK                            x       y       z     vdW  Elec       q    Type
REMARK                         _______ _______ _______ _____ _____    ______ ____
ROOT
ATOM      1  C   LIG    1       -1.048   4.715  -0.402  0.00  0.00    +0.510 C 
ATOM      2  N   LIG    1        0.009   4.031  -0.882  0.00  0.00    -0.610 N 
ATOM      3  C   LIG    1        0.092   3.719  -2.311  0.00  0.00    +0.270 C 
ATOM      4  O   LIG    1       -1.117   4.973   0.781  0.00  0.00    -0.520 OA
ENDROOT
BRANCH   2   5
ATOM      5  C   LIG    1        1.076   3.601   0.024  0.00  0.00    +0.290 C 
ATOM      6  C   LIG    1        2.397   4.227  -0.418  0.00  0.00    +0.010 C 
ATOM      7  C   LIG    1        3.530   3.600   0.402  0.00  0.00    +0.020 C 
ATOM      8  C   LIG    1        3.698   2.148  -0.041  0.00  0.00    +0.080 C 
ATOM      9  C   LIG    1        2.374   1.430  -0.019  0.00  0.00    -0.070 A 
ATOM     10  C   LIG    1        2.391   0.042  -0.025  0.00  0.00    +0.000 A 
ATOM     11  C   LIG    1        1.211  -0.674  -0.014  0.00  0.00    +0.010 A 
ATOM     12  C   LIG    1        0.002  -0.004   0.002  0.00  0.00    +0.000 A 
ATOM     13  C   LIG    1       -0.017   1.375   0.010  0.00  0.00    +0.020 A 
ATOM     14  C   LIG    1        1.170   2.098   0.002  0.00  0.00    -0.090 A 
ENDBRANCH   2   5
BRANCH   1  15
ATOM     15  C   LIG    1       -2.146   5.158  -1.335  0.00  0.00    +0.060 C 
BRANCH  15  17
ATOM     16  C   LIG    1       -4.390   6.249  -1.463  0.00  0.00    +0.040 C 
ATOM     17  C   LIG    1       -3.218   5.908  -0.541  0.00  0.00    +0.260 C 
BRANCH  17  18
ATOM     18  N   LIG    1       -2.648   7.144   0.002  0.00  0.00    -0.710 N 
ATOM     19  H   LIG    1       -1.886   7.558  -0.431  0.00  0.00    +0.400 HD
ATOM     20  C   LIG    1       -3.184   7.705   1.104  0.00  0.00    +0.570 C 
ATOM     21  O   LIG    1       -4.139   7.186   1.647  0.00  0.00    -0.530 OA
BRANCH  20  22
ATOM     22  C   LIG    1       -2.609   8.952   1.652  0.00  0.00    -0.130 A 
ATOM     23  C   LIG    1       -1.508   9.547   1.034  0.00  0.00    +0.030 A 
ATOM     24  C   LIG    1       -0.980  10.713   1.548  0.00  0.00    +0.000 A 
ATOM     25  C   LIG    1       -1.532  11.287   2.679  0.00  0.00    +0.030 A 
ATOM     26  C   LIG    1       -2.620  10.700   3.300  0.00  0.00    +0.000 A 
ATOM     27  C   LIG    1       -3.161   9.536   2.793  0.00  0.00    +0.080 A 
ENDBRANCH  20  22
ENDBRANCH  17  18
ENDBRANCH  15  17
ENDBRANCH   1  15
TORSDOF 5
