REMARK  Name = ZINCpk00000y6u3h.0
REMARK                            x       y       z     vdW  Elec       q    Type
REMARK                         _______ _______ _______ _____ _____    ______ ____
ROOT
ATOM      1  C   LIG    1       -7.509  -1.529   2.010  0.00  0.00    +0.170 C 
ATOM      2  C   LIG    1       -7.827  -0.182   1.321  0.00  0.00    +0.050 C 
ATOM      3  C   LIG    1       -6.871   0.836   1.968  0.00  0.00    +0.150 C 
ATOM      4  N   LIG    1       -6.083   0.106   2.985  0.00  0.00    -0.480 NA
ATOM      5  C   LIG    1       -6.071  -1.313   2.546  0.00  0.00    +0.170 C 
ENDROOT
BRANCH   1   7
ATOM      6  C   LIG    1       -7.817  -3.878   1.641  0.00  0.00    +0.200 C 
ATOM      7  O   LIG    1       -7.539  -2.600   1.064  0.00  0.00    -0.380 OA
ENDBRANCH   1   7
BRANCH   4   8
ATOM      8  C   LIG    1       -4.717   0.640   3.075  0.00  0.00    +0.210 C 
BRANCH   8   9
ATOM      9  C   LIG    1       -3.971  -0.072   4.174  0.00  0.00    +0.520 C 
ATOM     10  N   LIG    1       -2.657   0.164   4.358  0.00  0.00    -0.730 N 
ATOM     11  H   LIG    1       -2.191   0.792   3.784  0.00  0.00    +0.400 HD
ATOM     12  O   LIG    1       -4.553  -0.857   4.892  0.00  0.00    -0.510 OA
BRANCH  10  13
ATOM     13  C   LIG    1       -1.931  -0.529   5.426  0.00  0.00    +0.400 C 
BRANCH  13  14
ATOM     14  C   LIG    1       -0.489  -0.091   5.419  0.00  0.00    -0.040 A 
ATOM     15  C   LIG    1        0.022   0.947   6.105  0.00  0.00    -0.030 A 
ATOM     16  C   LIG    1        1.404   0.991   5.812  0.00  0.00    -0.070 A 
ATOM     17  C   LIG    1        1.655  -0.020   4.961  0.00  0.00    +0.180 A 
ATOM     18  O   LIG    1        0.504  -0.670   4.724  0.00  0.00    -0.170 OA
ENDBRANCH  13  14
ENDBRANCH  10  13
ENDBRANCH   8   9
ENDBRANCH   4   8
BRANCH   3  19
ATOM     19  C   LIG    1       -7.674   1.954   2.636  0.00  0.00    +0.210 C 
BRANCH  19  20
ATOM     20  O   LIG    1       -8.642   1.383   3.519  0.00  0.00    -0.290 OA
BRANCH  20  21
ATOM     21  C   LIG    1       -9.444   2.247   4.197  0.00  0.00    +0.080 A 
ATOM     22  C   LIG    1      -10.411   1.769   5.075  0.00  0.00    +0.030 A 
ATOM     23  C   LIG    1      -11.205   2.688   5.743  0.00  0.00    +0.010 A 
ATOM     24  C   LIG    1      -11.012   4.038   5.516  0.00  0.00    +0.220 A 
ATOM     25  N   LIG    1      -10.086   4.457   4.676  0.00  0.00    -0.450 NA
ATOM     26  C   LIG    1       -9.307   3.617   4.025  0.00  0.00    +0.170 A 
ENDBRANCH  20  21
ENDBRANCH  19  20
ENDBRANCH   3  19
TORSDOF 8
