REMARK  Name = ZINCpe000000TP59.0
REMARK                            x       y       z     vdW  Elec       q    Type
REMARK                         _______ _______ _______ _____ _____    ______ ____
ROOT
ATOM      1  C   LIG    1       -1.167   1.880   0.017  0.00  0.00    -0.280 A 
ATOM      2  C   LIG    1       -0.733   3.220   0.025  0.00  0.00    +0.330 A 
ATOM      3  N   LIG    1       -1.390   4.380   0.037  0.00  0.00    -0.440 NA
ATOM      4  C   LIG    1       -0.741   5.524   0.036  0.00  0.00    +0.380 A 
ATOM      5  C   LIG    1        0.659   5.536   0.024  0.00  0.00    -0.230 A 
ATOM      6  C   LIG    1        1.335   4.359   0.012  0.00  0.00    +0.370 A 
ATOM      7  N   LIG    1        0.633   3.190   0.013  0.00  0.00    -0.300 N 
ATOM      8  N   LIG    1        1.039   1.852   0.002  0.00  0.00    -0.310 NA
ATOM      9  C   LIG    1       -0.013   1.076   0.008  0.00  0.00    +0.380 A 
ENDROOT
BRANCH   1  10
ATOM     10  C   LIG    1       -2.555   1.414   0.020  0.00  0.00    +0.540 C 
ATOM     11  O   LIG    1       -3.467   2.218   0.028  0.00  0.00    -0.500 OA
BRANCH  10  12
ATOM     12  O   LIG    1       -2.822   0.091   0.014  0.00  0.00    -0.360 OA
BRANCH  12  14
ATOM     13  C   LIG    1       -4.324  -1.825   0.011  0.00  0.00    +0.070 C 
ATOM     14  C   LIG    1       -4.221  -0.298   0.018  0.00  0.00    +0.210 C 
ENDBRANCH  12  14
ENDBRANCH  10  12
ENDBRANCH   1  10
BRANCH   5  15
ATOM     15  C   LIG    1        1.408   6.844   0.022  0.00  0.00    +0.320 C 
BRANCH  15  16
ATOM     16  N   LIG    1        1.533   7.335  -1.357  0.00  0.00    -0.520 NA
ATOM     17  C   LIG    1        0.218   7.685  -1.913  0.00  0.00    +0.160 C 
ATOM     18  C   LIG    1        0.399   8.257  -3.321  0.00  0.00    +0.230 C 
ATOM     19  O   LIG    1        1.083   7.298  -4.135  0.00  0.00    -0.360 OA
ATOM     20  C   LIG    1        2.350   6.907  -3.620  0.00  0.00    +0.090 C 
ATOM     21  C   LIG    1        3.322   8.102  -3.625  0.00  0.00    -0.000 C 
ATOM     22  C   LIG    1        4.468   7.644  -4.556  0.00  0.00    +0.190 C 
ATOM     23  O   LIG    1        3.873   6.641  -5.408  0.00  0.00    -0.370 OA
ATOM     24  C   LIG    1        3.008   5.868  -4.545  0.00  0.00    +0.240 C 
ATOM     25  C   LIG    1        2.212   6.346  -2.209  0.00  0.00    +0.170 C 
ENDBRANCH  15  16
ENDBRANCH   5  15
TORSDOF 5
