REMARK  Name = ZINCpe00000MJJfE.0
REMARK                            x       y       z     vdW  Elec       q    Type
REMARK                         _______ _______ _______ _____ _____    ______ ____
ROOT
ATOM      1  O   LIG    1       -2.074   5.475  -2.363  0.00  0.00    -0.530 OA
ATOM      2  C   LIG    1       -1.063   6.046  -2.010  0.00  0.00    +0.500 C 
ATOM      3  N   LIG    1       -0.816   7.301  -2.435  0.00  0.00    -0.730 N 
ATOM      4  H   LIG    1       -0.008   7.758  -2.153  0.00  0.00    +0.400 HD
ENDROOT
BRANCH   3   5
ATOM      5  C   LIG    1       -1.767   7.975  -3.321  0.00  0.00    +0.330 C 
BRANCH   5   6
ATOM      6  C   LIG    1       -1.259   9.357  -3.645  0.00  0.00    -0.100 A 
ATOM      7  C   LIG    1       -0.448   9.552  -4.747  0.00  0.00    +0.050 A 
ATOM      8  C   LIG    1        0.022  10.817  -5.051  0.00  0.00    +0.020 A 
ATOM      9  C   LIG    1       -0.324  11.889  -4.247  0.00  0.00    +0.080 A 
ATOM     10  O   LIG    1        0.133  13.142  -4.534  0.00  0.00    -0.320 OA
ATOM     11  C   LIG    1       -0.853  14.084  -4.963  0.00  0.00    +0.230 C 
ATOM     12  C   LIG    1       -1.538  14.729  -3.768  0.00  0.00    -0.010 C 
ATOM     13  C   LIG    1       -2.337  13.727  -2.949  0.00  0.00    +0.230 C 
ATOM     14  O   LIG    1       -1.474  12.757  -2.353  0.00  0.00    -0.320 OA
ATOM     15  C   LIG    1       -1.139  11.693  -3.140  0.00  0.00    +0.060 A 
ATOM     16  C   LIG    1       -1.612  10.427  -2.842  0.00  0.00    +0.040 A 
ENDBRANCH   5   6
ENDBRANCH   3   5
BRANCH   2  17
ATOM     17  C   LIG    1       -0.085   5.352  -1.098  0.00  0.00    +0.310 C 
BRANCH  17  18
ATOM     18  N   LIG    1       -0.578   4.009  -0.783  0.00  0.00    -0.580 N 
ATOM     19  C   LIG    1       -1.442   3.804   0.391  0.00  0.00    +0.290 C 
ATOM     20  C   LIG    1       -0.638   3.072   1.468  0.00  0.00    -0.000 C 
ATOM     21  C   LIG    1       -0.711   1.569   1.266  0.00  0.00    +0.020 C 
ATOM     22  C   LIG    1       -0.013   1.086   0.008  0.00  0.00    +0.050 C 
ATOM     23  C   LIG    1       -0.741   1.587  -1.242  0.00  0.00    +0.190 C 
ATOM     24  C   LIG    1       -0.242   2.980  -1.562  0.00  0.00    +0.490 C 
ATOM     25  O   LIG    1        0.466   3.161  -2.530  0.00  0.00    -0.540 OA
BRANCH  23  26
ATOM     26  O   LIG    1       -2.148   1.621  -0.996  0.00  0.00    -0.540 OA
ATOM     27  H   LIG    1       -2.671   1.930  -1.748  0.00  0.00    +0.390 HD
ENDBRANCH  23  26
ENDBRANCH  17  18
ENDBRANCH   2  17
TORSDOF 5
