REMARK  Name = ZINCrg00000J1wnS.0
REMARK                            x       y       z     vdW  Elec       q    Type
REMARK                         _______ _______ _______ _____ _____    ______ ____
ROOT
ATOM      1  S   LIG    1       -1.954  -0.251  -2.585  0.00  0.00    +2.700 S 
ATOM      2  O   LIG    1       -0.553  -0.094  -2.767  0.00  0.00    -0.940 OA
ATOM      3  O   LIG    1       -2.906   0.707  -3.025  0.00  0.00    -0.940 OA
ENDROOT
BRANCH   1   4
ATOM      4  C   LIG    1       -2.387  -1.775  -3.356  0.00  0.00    -0.700 A 
ATOM      5  C   LIG    1       -1.428  -2.753  -3.539  0.00  0.00    +0.160 A 
ATOM      6  C   LIG    1       -1.765  -3.951  -4.138  0.00  0.00    -0.030 A 
ATOM      7  C   LIG    1       -3.068  -4.168  -4.566  0.00  0.00    +0.220 A 
ATOM      8  N   LIG    1       -3.415  -5.375  -5.179  0.00  0.00    -0.670 N 
ATOM      9  H   LIG    1       -2.845  -6.152  -5.070  0.00  0.00    +0.420 HD
ATOM     10  C   LIG    1       -4.535  -5.468  -5.918  0.00  0.00    +0.520 C 
ATOM     11  C   LIG    1       -5.427  -4.272  -6.117  0.00  0.00    +0.090 C 
ATOM     12  C   LIG    1       -5.442  -3.416  -4.850  0.00  0.00    +0.110 C 
ATOM     13  O   LIG    1       -4.830  -6.527  -6.431  0.00  0.00    -0.510 OA
ATOM     14  C   LIG    1       -4.028  -3.180  -4.386  0.00  0.00    -0.140 A 
ATOM     15  C   LIG    1       -3.686  -1.987  -3.781  0.00  0.00    +0.170 A 
ENDBRANCH   1   4
BRANCH   1  20
ATOM     16  C   LIG    1       -1.196  -0.918   0.008  0.00  0.00    +0.380 C 
ATOM     17  C   LIG    1       -1.861  -0.903   1.401  0.00  0.00    +0.100 C 
ATOM     18  C   LIG    1       -3.014   0.119   1.225  0.00  0.00    +0.180 C 
ATOM     19  C   LIG    1       -3.450  -0.152  -0.237  0.00  0.00    +0.270 C 
ATOM     20  N   LIG    1       -2.196  -0.438  -0.957  0.00  0.00    -1.000 NA
BRANCH  16  24
ATOM     21  C   LIG    1        1.969   0.776  -0.013  0.00  0.00    +0.180 A 
ATOM     22  N   LIG    1        1.119   1.759   0.001  0.00  0.00    -0.380 NA
ATOM     23  O   LIG    1       -0.016   1.332   0.009  0.00  0.00    +0.090 OA
ATOM     24  C   LIG    1        0.002  -0.004   0.002  0.00  0.00    +0.160 A 
ATOM     25  N   LIG    1        1.262  -0.368  -0.012  0.00  0.00    -0.460 NA
BRANCH  21  27
ATOM     26  C   LIG    1        3.966   0.944  -1.473  0.00  0.00    +0.040 C 
ATOM     27  C   LIG    1        3.471   0.895  -0.026  0.00  0.00    +0.160 C 
ENDBRANCH  21  27
ENDBRANCH  16  24
BRANCH  18  28
ATOM     28  O   LIG    1       -4.082  -0.150   2.136  0.00  0.00    -0.550 OA
ATOM     29  H   LIG    1       -4.865   0.401   1.998  0.00  0.00    +0.390 HD
ENDBRANCH  18  28
ENDBRANCH   1  20
TORSDOF 5
