REMARK  Name = ZINCrH00000tj14T.0
REMARK                            x       y       z     vdW  Elec       q    Type
REMARK                         _______ _______ _______ _____ _____    ______ ____
ROOT
ATOM      1  N   LIG    1       -1.160   0.182  -0.848  0.00  0.00    -0.620 N 
ATOM      2  C   LIG    1       -0.794  -1.114  -0.789  0.00  0.00    +0.710 C 
ATOM      3  N   LIG    1        0.498  -1.441  -0.588  0.00  0.00    -0.690 N 
ATOM      4  H   LIG    1        1.175  -0.747  -0.560  0.00  0.00    +0.410 HD
ATOM      5  O   LIG    1       -1.630  -1.988  -0.918  0.00  0.00    -0.570 OA
ENDROOT
BRANCH   3   6
ATOM      6  C   LIG    1        0.862  -2.782  -0.420  0.00  0.00    +0.150 A 
ATOM      7  C   LIG    1        0.198  -3.777  -1.126  0.00  0.00    +0.110 A 
ATOM      8  C   LIG    1        0.560  -5.099  -0.959  0.00  0.00    +0.040 A 
ATOM      9  C   LIG    1        1.583  -5.433  -0.089  0.00  0.00    +0.040 A 
ATOM     10  C   LIG    1        2.246  -4.444   0.616  0.00  0.00    -0.650 A 
ATOM     11 CL   LIG    1        2.035  -7.097   0.119  0.00  0.00    -0.040 Cl
ATOM     12  C   LIG    1        1.891  -3.120   0.448  0.00  0.00    +0.110 A 
BRANCH  10  13
ATOM     13  S   LIG    1        3.548  -4.873   1.722  0.00  0.00    +2.690 S 
ATOM     14  O   LIG    1        4.017  -3.655   2.282  0.00  0.00    -0.950 OA
ATOM     15  O   LIG    1        4.388  -5.780   1.021  0.00  0.00    -0.940 OA
BRANCH  13  16
ATOM     16  N   LIG    1        2.871  -5.730   2.967  0.00  0.00    -1.000 NA
ATOM     17  C   LIG    1        2.195  -5.026   4.059  0.00  0.00    +0.300 C 
ATOM     18  C   LIG    1        2.948  -7.193   2.976  0.00  0.00    +0.290 C 
ENDBRANCH  13  16
ENDBRANCH  10  13
ENDBRANCH   3   6
BRANCH   1  20
ATOM     19  C   LIG    1        0.419   1.600  -2.063  0.00  0.00    +0.010 C 
ATOM     20  C   LIG    1       -0.153   1.235  -0.692  0.00  0.00    +0.270 C 
ENDBRANCH   1  20
BRANCH   1  21
ATOM     21  C   LIG    1       -2.563   0.538  -1.072  0.00  0.00    +0.360 C 
BRANCH  21  22
ATOM     22  C   LIG    1       -3.269   0.660   0.254  0.00  0.00    -0.080 A 
ATOM     23  C   LIG    1       -3.885  -0.445   0.813  0.00  0.00    +0.040 A 
ATOM     24  C   LIG    1       -4.528  -0.336   2.031  0.00  0.00    +0.040 A 
ATOM     25  C   LIG    1       -4.566   0.880   2.687  0.00  0.00    -0.010 A 
ATOM     26  C   LIG    1       -3.954   1.988   2.126  0.00  0.00    +0.090 A 
ATOM     27  F   LIG    1       -3.990   3.177   2.766  0.00  0.00    -0.140 F 
ATOM     28  C   LIG    1       -3.305   1.877   0.908  0.00  0.00    -0.010 A 
ENDBRANCH  21  22
ENDBRANCH   1  21
TORSDOF 6
