REMARK  Name = ZINCqH0000006oLP.0
REMARK                            x       y       z     vdW  Elec       q    Type
REMARK                         _______ _______ _______ _____ _____    ______ ____
ROOT
ATOM      1  C   LIG    1       -0.685  -0.695  -0.929  0.00  0.00    +0.560 C 
ATOM      2  N   LIG    1        0.218   0.023  -0.232  0.00  0.00    -0.610 N 
ATOM      3  C   LIG    1        1.276  -0.647   0.536  0.00  0.00    +0.260 C 
ATOM      4  C   LIG    1        2.632  -0.077   0.108  0.00  0.00    +0.030 C 
ATOM      5  C   LIG    1        2.612   1.446   0.262  0.00  0.00    +0.040 C 
ATOM      6  C   LIG    1        1.532   2.038  -0.646  0.00  0.00    +0.090 C 
ATOM      7  C   LIG    1        0.163   1.492  -0.227  0.00  0.00    +0.290 C 
ATOM      8  O   LIG    1       -1.596  -0.132  -1.504  0.00  0.00    -0.530 OA
ENDROOT
BRANCH   6   9
ATOM      9  C   LIG    1        1.535   3.539  -0.519  0.00  0.00    +0.290 A 
ATOM     10  N   LIG    1        2.172   4.353  -1.310  0.00  0.00    -0.480 NA
ATOM     11  C   LIG    1        1.958   5.634  -0.914  0.00  0.00    +0.050 A 
ATOM     12  C   LIG    1        2.386   6.875  -1.393  0.00  0.00    +0.070 A 
ATOM     13  C   LIG    1        1.997   8.021  -0.759  0.00  0.00    +0.000 A 
ATOM     14  C   LIG    1        1.177   7.968   0.358  0.00  0.00    +0.030 A 
ATOM     15  C   LIG    1        0.741   6.755   0.848  0.00  0.00    +0.010 A 
ATOM     16  C   LIG    1        1.127   5.580   0.218  0.00  0.00    +0.050 A 
ATOM     17  N   LIG    1        0.877   4.241   0.443  0.00  0.00    -0.600 N 
ATOM     18  H   LIG    1        0.333   3.869   1.155  0.00  0.00    +0.420 HD
ENDBRANCH   6   9
BRANCH   1  22
ATOM     19  C   LIG    1       -0.349  -4.925  -1.113  0.00  0.00    -0.070 A 
ATOM     20  C   LIG    1       -0.308  -4.284   0.112  0.00  0.00    +0.030 A 
ATOM     21  C   LIG    1       -0.417  -2.910   0.179  0.00  0.00    +0.040 A 
ATOM     22  C   LIG    1       -0.568  -2.167  -0.993  0.00  0.00    -0.120 A 
ATOM     23  C   LIG    1       -0.613  -2.821  -2.225  0.00  0.00    +0.060 A 
ATOM     24  C   LIG    1       -0.498  -4.195  -2.279  0.00  0.00    +0.030 A 
BRANCH  19  25
ATOM     25  C   LIG    1       -0.230  -6.426  -1.178  0.00  0.00    +0.220 C 
BRANCH  25  27
ATOM     26  C   LIG    1       -1.530  -8.440  -1.149  0.00  0.00    +0.200 C 
ATOM     27  O   LIG    1       -1.531  -7.011  -1.096  0.00  0.00    -0.380 OA
ENDBRANCH  25  27
ENDBRANCH  19  25
ENDBRANCH   1  22
TORSDOF 4
