REMARK  Name = ZINCpk00000KfLkV.0
REMARK                            x       y       z     vdW  Elec       q    Type
REMARK                         _______ _______ _______ _____ _____    ______ ____
ROOT
ATOM      1  O   LIG    1       -2.450   2.805  -1.515  0.00  0.00    -0.510 OA
ATOM      2  C   LIG    1       -2.956   2.219  -2.454  0.00  0.00    +0.620 C 
ATOM      3  N   LIG    1       -2.188   1.800  -3.480  0.00  0.00    -0.610 N 
ATOM      4  C   LIG    1       -2.677   1.177  -4.728  0.00  0.00    +0.250 C 
ATOM      5  C   LIG    1       -1.566   1.456  -5.771  0.00  0.00    +0.040 C 
ATOM      6  C   LIG    1       -0.285   1.313  -4.908  0.00  0.00    +0.030 C 
ATOM      7  C   LIG    1       -0.722   1.885  -3.543  0.00  0.00    +0.230 C 
ENDROOT
BRANCH   2   8
ATOM      8  C   LIG    1       -4.401   1.969  -2.470  0.00  0.00    -0.060 A 
ATOM      9  C   LIG    1       -5.289   2.333  -1.499  0.00  0.00    +0.040 A 
ATOM     10  C   LIG    1       -6.554   1.898  -1.925  0.00  0.00    -0.010 A 
ATOM     11  C   LIG    1       -6.383   1.289  -3.119  0.00  0.00    -0.010 A 
ATOM     12  O   LIG    1       -5.085   1.334  -3.444  0.00  0.00    -0.160 OA
BRANCH  11  13
ATOM     13  C   LIG    1       -7.475   0.663  -3.949  0.00  0.00    +0.460 C 
BRANCH  13  14
ATOM     14  N   LIG    1       -8.031   1.665  -4.861  0.00  0.00    -0.380 N 
ATOM     15  C   LIG    1       -8.127   1.552  -6.202  0.00  0.00    +0.240 A 
ATOM     16  C   LIG    1       -8.696   2.686  -6.672  0.00  0.00    -0.120 A 
ATOM     17  C   LIG    1       -8.956   3.522  -5.580  0.00  0.00    +0.230 A 
ATOM     18  N   LIG    1       -8.563   2.908  -4.494  0.00  0.00    -0.290 NA
ENDBRANCH  13  14
ENDBRANCH  11  13
ENDBRANCH   2   8
BRANCH   7  19
ATOM     19  C   LIG    1       -0.104   1.061  -2.411  0.00  0.00    +0.180 C 
BRANCH  19  20
ATOM     20  N   LIG    1        1.295   1.466  -2.218  0.00  0.00    -0.530 NA
ATOM     21  C   LIG    1        1.954   0.621  -1.212  0.00  0.00    +0.150 C 
ATOM     22  C   LIG    1        3.388   1.113  -0.999  0.00  0.00    +0.220 C 
ATOM     23  O   LIG    1        4.080   1.106  -2.250  0.00  0.00    -0.390 OA
ATOM     24  C   LIG    1        3.466   1.920  -3.253  0.00  0.00    +0.220 C 
ATOM     25  C   LIG    1        2.033   1.435  -3.489  0.00  0.00    +0.140 C 
ENDBRANCH  19  20
ENDBRANCH   7  19
TORSDOF 5
