REMARK  Name = ZINCpe000000YeCm.0
REMARK                            x       y       z     vdW  Elec       q    Type
REMARK                         _______ _______ _______ _____ _____    ______ ____
ROOT
ATOM      1  C   LIG    1       -2.495  -0.437   0.036  0.00  0.00    +0.360 C 
ATOM      2  N   LIG    1       -1.085  -0.831   0.013  0.00  0.00    -0.460 N 
ATOM      3  C   LIG    1       -0.582  -2.103  -0.004  0.00  0.00    +0.200 A 
ATOM      4  N   LIG    1        0.717  -2.007  -0.015  0.00  0.00    -0.280 NA
ATOM      5  N   LIG    1        1.068  -0.770  -0.012  0.00  0.00    -0.290 NA
ATOM      6  C   LIG    1        0.002  -0.004   0.002  0.00  0.00    +0.140 A 
ENDROOT
BRANCH   3   7
ATOM      7  C   LIG    1       -1.383  -3.379  -0.004  0.00  0.00    +0.210 C 
BRANCH   7   8
ATOM      8  C   LIG    1       -1.637  -3.813   1.417  0.00  0.00    -0.090 A 
ATOM      9  C   LIG    1       -0.742  -4.652   2.054  0.00  0.00    +0.030 A 
ATOM     10  C   LIG    1       -0.972  -5.046   3.359  0.00  0.00    +0.010 A 
ATOM     11  C   LIG    1       -2.102  -4.608   4.024  0.00  0.00    +0.000 A 
ATOM     12  C   LIG    1       -3.000  -3.773   3.385  0.00  0.00    +0.000 A 
ATOM     13  C   LIG    1       -2.767  -3.375   2.082  0.00  0.00    +0.000 A 
ENDBRANCH   7   8
ENDBRANCH   3   7
BRANCH   6  14
ATOM     14  S   LIG    1       -0.022   1.758   0.012  0.00  0.00    +0.080 S 
BRANCH  14  15
ATOM     15  C   LIG    1        1.756   2.096  -0.004  0.00  0.00    +0.110 C 
BRANCH  15  16
ATOM     16  C   LIG    1        1.984   3.586   0.002  0.00  0.00    +0.540 C 
ATOM     17  N   LIG    1        3.240   4.076  -0.007  0.00  0.00    -0.710 N 
ATOM     18  H   LIG    1        3.997   3.469  -0.018  0.00  0.00    +0.410 HD
ATOM     19  O   LIG    1        1.037   4.344   0.015  0.00  0.00    -0.520 OA
BRANCH  17  20
ATOM     20  C   LIG    1        3.461   5.524  -0.001  0.00  0.00    +0.270 C 
ATOM     21  C   LIG    1        4.848   5.843   0.583  0.00  0.00    +0.070 C 
ATOM     22  C   LIG    1        5.192   7.312   0.267  0.00  0.00    -0.300 C 
ATOM     23  S   LIG    1        4.283   7.693  -1.274  0.00  0.00    +2.400 S 
ATOM     24  O   LIG    1        5.210   7.872  -2.336  0.00  0.00    -0.930 OA
ATOM     25  O   LIG    1        3.307   8.692  -1.010  0.00  0.00    -0.930 OA
ATOM     26  C   LIG    1        3.454   6.068  -1.453  0.00  0.00    -0.320 C 
ENDBRANCH  17  20
ENDBRANCH  15  16
ENDBRANCH  14  15
ENDBRANCH   6  14
TORSDOF 6
