REMARK  Name = ZINCvU0000000H9u.0
REMARK                            x       y       z     vdW  Elec       q    Type
REMARK                         _______ _______ _______ _____ _____    ______ ____
ROOT
ATOM      1  C   LIG    1        4.340   0.825  -1.997  0.00  0.00    +0.090 A 
ATOM      2  C   LIG    1        4.875  -0.430  -2.233  0.00  0.00    -0.010 A 
ATOM      3  C   LIG    1        5.715  -1.011  -1.300  0.00  0.00    +0.020 A 
ATOM      4  C   LIG    1        6.025  -0.336  -0.128  0.00  0.00    +0.150 A 
ATOM      5  C   LIG    1        5.494   0.925   0.109  0.00  0.00    -0.060 A 
ATOM      6  C   LIG    1        4.654   1.507  -0.825  0.00  0.00    +0.120 A 
ENDROOT
BRANCH   4   7
ATOM      7  N   LIG    1        6.875  -0.926   0.816  0.00  0.00    -0.670 N 
ATOM      8  H   LIG    1        6.743  -0.756   1.762  0.00  0.00    +0.410 HD
ATOM      9  C   LIG    1        7.878  -1.731   0.410  0.00  0.00    +0.530 C 
ATOM     10  O   LIG    1        8.103  -1.869  -0.774  0.00  0.00    -0.510 OA
BRANCH   9  11
ATOM     11  C   LIG    1        8.718  -2.459   1.427  0.00  0.00    -0.040 C 
ATOM     12  C   LIG    1        9.350  -1.454   2.406  0.00  0.00    +0.030 C 
ATOM     13  C   LIG    1       10.879  -1.603   2.266  0.00  0.00    +0.020 C 
ATOM     14  C   LIG    1       11.074  -2.199   0.849  0.00  0.00    +0.010 C 
ATOM     15  C   LIG    1        9.885  -3.185   0.726  0.00  0.00    +0.060 C 
BRANCH  11  16
ATOM     16  C   LIG    1        7.871  -3.453   2.180  0.00  0.00    -0.070 A 
ATOM     17  C   LIG    1        8.409  -4.153   3.244  0.00  0.00    +0.050 A 
ATOM     18  C   LIG    1        7.631  -5.059   3.939  0.00  0.00    +0.040 A 
ATOM     19  C   LIG    1        6.317  -5.275   3.562  0.00  0.00    -0.030 A 
ATOM     20  C   LIG    1        5.781  -4.578   2.494  0.00  0.00    +0.040 A 
ATOM     21 CL   LIG    1        5.341  -6.418   4.431  0.00  0.00    -0.070 Cl
ATOM     22  C   LIG    1        6.559  -3.667   1.804  0.00  0.00    +0.020 A 
ENDBRANCH  11  16
ENDBRANCH   9  11
ENDBRANCH   4   7
BRANCH   1  24
ATOM     23  C   LIG    1        3.231   0.638  -4.093  0.00  0.00    +0.250 C 
ATOM     24  O   LIG    1        3.510   1.394  -2.913  0.00  0.00    -0.310 OA
ENDBRANCH   1  24
BRANCH   6  25
ATOM     25  O   LIG    1        4.132   2.742  -0.595  0.00  0.00    -0.290 OA
BRANCH  25  26
ATOM     26  C   LIG    1        4.493   3.380   0.632  0.00  0.00    +0.260 C 
BRANCH  26  27
ATOM     27  C   LIG    1        3.825   4.729   0.712  0.00  0.00    -0.150 A 
ATOM     28  C   LIG    1        2.570   4.858   1.286  0.00  0.00    +0.090 A 
ATOM     29  C   LIG    1        1.992   6.117   1.333  0.00  0.00    -0.040 A 
ATOM     30  C   LIG    1        2.685   7.196   0.819  0.00  0.00    +0.270 A 
ATOM     31  N   LIG    1        3.877   7.036   0.279  0.00  0.00    -0.490 NA
ATOM     32  C   LIG    1        4.456   5.853   0.213  0.00  0.00    +0.290 A 
ENDBRANCH  26  27
ENDBRANCH  25  26
ENDBRANCH   6  25
TORSDOF 7
