REMARK  Name = ZINCrD000000fEMX.0
REMARK                            x       y       z     vdW  Elec       q    Type
REMARK                         _______ _______ _______ _____ _____    ______ ____
ROOT
ATOM      1  C   LIG    1       -1.566   4.394   0.040  0.00  0.00    +0.150 A 
ATOM      2  C   LIG    1       -1.050   5.638   0.042  0.00  0.00    -0.090 A 
ATOM      3  S   LIG    1       -2.384   6.789   0.059  0.00  0.00    +0.230 S 
ATOM      4  C   LIG    1       -3.537   5.457   0.063  0.00  0.00    +0.280 A 
ATOM      5  N   LIG    1       -2.896   4.331   0.046  0.00  0.00    -0.490 NA
ENDROOT
BRANCH   1   9
ATOM      6  C   LIG    1        1.059   1.891   0.002  0.00  0.00    -0.030 A 
ATOM      7  C   LIG    1       -0.013   1.076   0.008  0.00  0.00    -0.020 A 
ATOM      8  C   LIG    1       -1.158   1.899   0.017  0.00  0.00    +0.000 A 
ATOM      9  C   LIG    1       -0.716   3.185   0.026  0.00  0.00    +0.060 A 
ATOM     10  O   LIG    1        0.631   3.165   0.013  0.00  0.00    -0.160 OA
BRANCH   6  11
ATOM     11  C   LIG    1        2.500   1.449  -0.014  0.00  0.00    +0.390 C 
BRANCH  11  14
ATOM     12  C   LIG    1        4.685   0.784  -3.086  0.00  0.00    +0.110 C 
ATOM     13  C   LIG    1        4.218   0.925  -1.660  0.00  0.00    +0.510 C 
ATOM     14  N   LIG    1        2.954   1.312  -1.400  0.00  0.00    -0.730 N 
ATOM     15  H   LIG    1        2.344   1.501  -2.131  0.00  0.00    +0.410 HD
ATOM     16  O   LIG    1        4.980   0.689  -0.746  0.00  0.00    -0.540 OA
ENDBRANCH  11  14
ENDBRANCH   6  11
ENDBRANCH   1   9
BRANCH   4  17
ATOM     17  N   LIG    1       -4.919   5.594   0.075  0.00  0.00    -0.620 N 
ATOM     18  H   LIG    1       -5.484   4.806   0.076  0.00  0.00    +0.430 HD
ATOM     19  C   LIG    1       -5.475   6.822   0.086  0.00  0.00    +0.520 C 
ATOM     20  O   LIG    1       -4.769   7.807   0.084  0.00  0.00    -0.470 OA
BRANCH  19  21
ATOM     21  C   LIG    1       -6.975   6.969   0.099  0.00  0.00    +0.270 C 
BRANCH  21  22
ATOM     22  O   LIG    1       -7.317   8.357   0.108  0.00  0.00    -0.290 OA
BRANCH  22  23
ATOM     23  C   LIG    1       -8.640   8.666   0.121  0.00  0.00    +0.130 A 
ATOM     24  C   LIG    1       -9.590   7.655   0.118  0.00  0.00    -0.090 A 
ATOM     25  C   LIG    1      -10.935   7.973   0.137  0.00  0.00    +0.060 A 
ATOM     26  C   LIG    1      -11.334   9.296   0.146  0.00  0.00    -0.020 A 
ATOM     27  C   LIG    1      -10.389  10.306   0.144  0.00  0.00    -0.040 A 
ATOM     28  C   LIG    1      -10.827  11.748   0.154  0.00  0.00    +0.100 C 
ATOM     29  C   LIG    1       -9.043   9.994   0.131  0.00  0.00    -0.020 A 
ENDBRANCH  22  23
ENDBRANCH  21  22
ENDBRANCH  19  21
ENDBRANCH   4  17
TORSDOF 7
