REMARK  Name = ZINCrD00000hQ7fe.0
REMARK                            x       y       z     vdW  Elec       q    Type
REMARK                         _______ _______ _______ _____ _____    ______ ____
ROOT
ATOM      1  C   LIG    1       -2.520   1.405   0.020  0.00  0.00    +0.590 C 
ATOM      2  N   LIG    1       -3.528   2.295  -0.073  0.00  0.00    -0.610 N 
ATOM      3  C   LIG    1       -3.256   3.737  -0.172  0.00  0.00    +0.300 C 
ATOM      4  C   LIG    1       -4.034   4.293  -1.375  0.00  0.00    +0.190 C 
ATOM      5  N   LIG    1       -5.452   3.937  -1.241  0.00  0.00    -0.530 NA
ATOM      6  C   LIG    1       -5.642   2.481  -1.273  0.00  0.00    +0.180 C 
ATOM      7  C   LIG    1       -4.930   1.850  -0.072  0.00  0.00    +0.270 C 
ATOM      8  O   LIG    1       -1.365   1.792   0.022  0.00  0.00    -0.510 OA
ENDROOT
BRANCH   1  15
ATOM      9  C   LIG    1       -4.682  -5.525   0.890  0.00  0.00    +0.190 C 
ATOM     10  C   LIG    1       -4.032  -4.196   0.604  0.00  0.00    +0.090 A 
ATOM     11  N   LIG    1       -4.551  -3.056   0.890  0.00  0.00    -0.470 NA
ATOM     12  C   LIG    1       -3.860  -1.961   0.578  0.00  0.00    +0.230 A 
ATOM     13  C   LIG    1       -2.650  -2.255  -0.026  0.00  0.00    -0.260 A 
ATOM     14  C   LIG    1       -1.999  -1.046  -0.315  0.00  0.00    +0.100 A 
ATOM     15  C   LIG    1       -2.813  -0.026   0.119  0.00  0.00    +0.010 A 
ATOM     16  N   LIG    1       -3.954  -0.581   0.661  0.00  0.00    -0.530 N 
ATOM     17  H   LIG    1       -4.698  -0.087   1.040  0.00  0.00    +0.430 HD
ATOM     18  S   LIG    1       -2.508  -4.007  -0.142  0.00  0.00    +0.160 S 
ENDBRANCH   1  15
BRANCH   5  19
ATOM     19  C   LIG    1       -6.260   4.596  -2.276  0.00  0.00    +0.270 C 
BRANCH  19  20
ATOM     20  C   LIG    1       -5.861   6.045  -2.379  0.00  0.00    +0.080 A 
ATOM     21  C   LIG    1       -4.969   6.539  -3.253  0.00  0.00    -0.050 A 
ATOM     22  C   LIG    1       -4.883   7.981  -3.009  0.00  0.00    -0.110 A 
ATOM     23  C   LIG    1       -4.148   9.020  -3.582  0.00  0.00    +0.050 A 
ATOM     24  C   LIG    1       -4.298  10.295  -3.114  0.00  0.00    -0.030 A 
ATOM     25  C   LIG    1       -5.177  10.566  -2.075  0.00  0.00    +0.030 A 
ATOM     26  C   LIG    1       -5.912   9.556  -1.495  0.00  0.00    -0.010 A 
ATOM     27  C   LIG    1       -5.775   8.250  -1.954  0.00  0.00    +0.100 A 
ATOM     28  N   LIG    1       -6.357   7.054  -1.599  0.00  0.00    -0.580 N 
ATOM     29  H   LIG    1       -7.018   6.942  -0.898  0.00  0.00    +0.420 HD
ENDBRANCH  19  20
ENDBRANCH   5  19
TORSDOF 3
