REMARK  Name = ZINCvU00000006Nu.0
REMARK                            x       y       z     vdW  Elec       q    Type
REMARK                         _______ _______ _______ _____ _____    ______ ____
ROOT
ATOM      1  O   LIG    1        8.995  -0.756  -0.048  0.00  0.00    -0.520 OA
ATOM      2  C   LIG    1        8.781   0.438  -0.142  0.00  0.00    +0.550 C 
ATOM      3  N   LIG    1        9.811   1.302  -0.244  0.00  0.00    -0.670 N 
ATOM      4  H   LIG    1        9.645   2.257  -0.239  0.00  0.00    +0.410 HD
ENDROOT
BRANCH   3   5
ATOM      5  C   LIG    1       11.121   0.819  -0.356  0.00  0.00    +0.150 A 
ATOM      6  C   LIG    1       12.171   1.518   0.226  0.00  0.00    +0.010 A 
ATOM      7  C   LIG    1       13.461   1.040   0.120  0.00  0.00    +0.020 A 
ATOM      8  C   LIG    1       13.711  -0.135  -0.578  0.00  0.00    -0.100 A 
ATOM      9  C   LIG    1       12.662  -0.831  -1.165  0.00  0.00    +0.050 A 
ATOM     10  C   LIG    1       11.371  -0.356  -1.054  0.00  0.00    +0.040 A 
BRANCH   8  11
ATOM     11  S   LIG    1       15.360  -0.742  -0.720  0.00  0.00    -0.100 S 
BRANCH  11  12
ATOM     12  C   LIG    1       16.328   0.492   0.191  0.00  0.00    +0.140 C 
BRANCH  12  13
ATOM     13  C   LIG    1       17.786   0.109   0.161  0.00  0.00    -0.130 A 
ATOM     14  C   LIG    1       18.321  -0.695   1.156  0.00  0.00    +0.080 A 
ATOM     15  C   LIG    1       19.665  -1.027   1.085  0.00  0.00    -0.030 A 
ATOM     16  C   LIG    1       20.424  -0.539   0.038  0.00  0.00    +0.270 A 
ATOM     17  N   LIG    1       19.883   0.227  -0.889  0.00  0.00    -0.480 NA
ATOM     18  C   LIG    1       18.607   0.558  -0.856  0.00  0.00    +0.280 A 
ENDBRANCH  12  13
ENDBRANCH  11  12
ENDBRANCH   8  11
ENDBRANCH   3   5
BRANCH   2  19
ATOM     19  C   LIG    1        7.407   0.936  -0.145  0.00  0.00    -0.100 C 
ATOM     20  C   LIG    1        6.375   0.072  -0.044  0.00  0.00    +0.150 C 
BRANCH  20  21
ATOM     21  C   LIG    1        4.993   0.572  -0.047  0.00  0.00    -0.110 A 
ATOM     22  C   LIG    1        3.922  -0.323   0.059  0.00  0.00    +0.070 A 
ATOM     23  C   LIG    1        2.629   0.151   0.055  0.00  0.00    +0.000 A 
ATOM     24  C   LIG    1        2.387   1.517  -0.054  0.00  0.00    +0.180 A 
ATOM     25  C   LIG    1        3.449   2.409  -0.164  0.00  0.00    -0.030 A 
ATOM     26  C   LIG    1        4.744   1.946  -0.155  0.00  0.00    +0.060 A 
BRANCH  24  27
ATOM     27  N   LIG    1        1.075   1.992  -0.058  0.00  0.00    -0.560 N 
ATOM     28  C   LIG    1        0.710   3.413  -0.051  0.00  0.00    +0.260 C 
ATOM     29  C   LIG    1       -0.774   3.455   0.378  0.00  0.00    +0.060 C 
ATOM     30  C   LIG    1       -1.268   2.056  -0.064  0.00  0.00    +0.070 C 
ATOM     31  C   LIG    1       -0.016   1.207  -0.068  0.00  0.00    +0.520 C 
ATOM     32  O   LIG    1        0.001  -0.006  -0.082  0.00  0.00    -0.500 OA
ENDBRANCH  24  27
ENDBRANCH  20  21
ENDBRANCH   2  19
TORSDOF 7
