REMARK  Name = ZINCrH000004k92a.0
REMARK                            x       y       z     vdW  Elec       q    Type
REMARK                         _______ _______ _______ _____ _____    ______ ____
ROOT
ATOM      1  C   LIG    1       -4.690   1.538  -1.597  0.00  0.00    +0.560 C 
ATOM      2  N   LIG    1       -6.021   1.373  -1.734  0.00  0.00    -0.720 N 
ATOM      3  H   LIG    1       -6.562   1.141  -0.963  0.00  0.00    +0.400 HD
ATOM      4  O   LIG    1       -4.011   1.829  -2.563  0.00  0.00    -0.540 OA
ENDROOT
BRANCH   1  13
ATOM      5  C   LIG    1       -0.013   1.086   0.008  0.00  0.00    +0.220 C 
ATOM      6  N   LIG    1       -0.700   1.560   1.217  0.00  0.00    -0.490 N 
ATOM      7  C   LIG    1       -0.149   0.924   2.419  0.00  0.00    +0.180 C 
ATOM      8  C   LIG    1       -0.985   1.359   3.629  0.00  0.00    +0.260 C 
ATOM      9  O   LIG    1       -2.316   0.868   3.445  0.00  0.00    -0.310 OA
ATOM     10  C   LIG    1       -2.866   1.040   2.213  0.00  0.00    +0.120 A 
ATOM     11  C   LIG    1       -4.239   0.872   2.068  0.00  0.00    +0.010 A 
ATOM     12  C   LIG    1       -4.835   1.033   0.836  0.00  0.00    +0.050 A 
ATOM     13  C   LIG    1       -4.057   1.367  -0.275  0.00  0.00    -0.140 A 
ATOM     14  C   LIG    1       -2.679   1.538  -0.131  0.00  0.00    +0.080 A 
ATOM     15  C   LIG    1       -2.083   1.376   1.111  0.00  0.00    +0.030 A 
ENDBRANCH   1  13
BRANCH   2  16
ATOM     16  C   LIG    1       -6.649   1.543  -3.046  0.00  0.00    +0.280 C 
BRANCH  16  17
ATOM     17  C   LIG    1       -8.155   1.301  -2.926  0.00  0.00    +0.150 C 
ATOM     18  C   LIG    1       -8.835   1.442  -4.311  0.00  0.00    +0.020 C 
ATOM     19  C   LIG    1      -10.101   0.564  -4.108  0.00  0.00    +0.010 C 
ATOM     20  C   LIG    1       -9.584  -0.545  -3.170  0.00  0.00    +0.110 C 
ATOM     21  C   LIG    1      -10.659  -0.881  -2.137  0.00  0.00    +0.010 C 
ATOM     22  C   LIG    1      -10.148  -1.987  -1.210  0.00  0.00    +0.030 C 
ATOM     23  C   LIG    1       -9.817  -3.231  -2.036  0.00  0.00    -0.060 C 
ATOM     24  C   LIG    1       -8.733  -2.891  -3.061  0.00  0.00    +0.030 C 
ATOM     25  C   LIG    1       -9.312  -4.339  -1.109  0.00  0.00    +0.010 C 
ATOM     26  C   LIG    1      -11.075  -3.709  -2.764  0.00  0.00    +0.010 C 
ATOM     27  C   LIG    1       -9.240  -1.787  -3.992  0.00  0.00    +0.010 C 
ATOM     28  O   LIG    1       -8.412  -0.052  -2.515  0.00  0.00    -0.360 OA
ENDBRANCH  16  17
ENDBRANCH   2  16
TORSDOF 3
