REMARK  Name = ZINCkj000005llem.0
REMARK                            x       y       z     vdW  Elec       q    Type
REMARK                         _______ _______ _______ _____ _____    ______ ____
ROOT
ATOM      1  C   LIG    1        1.697   1.365   5.619  0.00  0.00    +0.600 C 
ATOM      2  N   LIG    1        2.239   0.417   6.410  0.00  0.00    -0.710 N 
ATOM      3  H   LIG    1        2.197  -0.515   6.146  0.00  0.00    +0.410 HD
ATOM      4  O   LIG    1        1.749   2.534   5.949  0.00  0.00    -0.530 OA
ENDROOT
BRANCH   1   7
ATOM      5  N   LIG    1       -0.020   1.094   2.454  0.00  0.00    -0.380 N 
ATOM      6  C   LIG    1        0.461   1.844   3.465  0.00  0.00    +0.320 A 
ATOM      7  C   LIG    1        1.041   0.985   4.354  0.00  0.00    -0.080 A 
ATOM      8  N   LIG    1        0.918  -0.267   3.879  0.00  0.00    -0.180 NA
ATOM      9  N   LIG    1        0.293  -0.239   2.753  0.00  0.00    -0.060 NA
BRANCH   5  10
ATOM     10  C   LIG    1       -0.729   1.579   1.267  0.00  0.00    +0.350 C 
BRANCH  10  11
ATOM     11  C   LIG    1       -0.013   1.086   0.008  0.00  0.00    +0.270 C 
BRANCH  11  12
ATOM     12  N   LIG    1       -0.723   1.572  -1.182  0.00  0.00    -0.630 N 
ATOM     13  H   LIG    1       -0.737   2.581  -1.177  0.00  0.00    +0.440 HD
ATOM     14  H   LIG    1       -1.670   1.223  -1.175  0.00  0.00    +0.440 HD
ATOM     15  H   LIG    1       -0.251   1.247  -2.012  0.00  0.00    +0.450 HD
ENDBRANCH  11  12
ENDBRANCH  10  11
ENDBRANCH   5  10
ENDBRANCH   1   7
BRANCH   2  16
ATOM     16  C   LIG    1        2.890   0.796   7.666  0.00  0.00    +0.260 C 
BRANCH  16  17
ATOM     17  C   LIG    1        3.416  -0.459   8.366  0.00  0.00    +0.010 C 
BRANCH  17  18
ATOM     18  C   LIG    1        4.096  -0.064   9.679  0.00  0.00    +0.030 C 
BRANCH  18  19
ATOM     19  C   LIG    1        4.622  -1.319  10.378  0.00  0.00    -0.020 C 
ATOM     20  C   LIG    1        3.444  -2.208  10.784  0.00  0.00    +0.000 C 
ATOM     21  C   LIG    1        3.970  -3.463  11.484  0.00  0.00    +0.000 C 
ATOM     22  C   LIG    1        4.758  -3.059  12.732  0.00  0.00    +0.000 C 
ATOM     23  C   LIG    1        5.935  -2.170  12.326  0.00  0.00    +0.000 C 
ATOM     24  C   LIG    1        5.409  -0.915  11.626  0.00  0.00    +0.000 C 
ENDBRANCH  18  19
ENDBRANCH  17  18
ENDBRANCH  16  17
ENDBRANCH   2  16
TORSDOF 8
