REMARK  Name = ZINCtV00000L6jEW.0
REMARK                            x       y       z     vdW  Elec       q    Type
REMARK                         _______ _______ _______ _____ _____    ______ ____
ROOT
ATOM      1  C   LIG    1        1.406   2.062   0.031  0.00  0.00    -0.290 A 
ATOM      2  C   LIG    1        2.162   2.467   1.113  0.00  0.00    +0.140 A 
ATOM      3  N   LIG    1        3.264   3.065   0.631  0.00  0.00    -0.350 N 
ATOM      4  N   LIG    1        3.203   3.047  -0.767  0.00  0.00    -0.270 NA
ATOM      5  C   LIG    1        1.816   2.272   2.567  0.00  0.00    +0.150 C 
ATOM      6  C   LIG    1        2.102   2.452  -1.134  0.00  0.00    +0.120 A 
ATOM      7  C   LIG    1        1.651   2.222  -2.554  0.00  0.00    +0.160 C 
ENDROOT
BRANCH   1  10
ATOM      8  N   LIG    1       -1.037   2.062   0.112  0.00  0.00    -0.670 N 
ATOM      9  H   LIG    1       -1.012   3.030   0.169  0.00  0.00    +0.410 HD
ATOM     10  C   LIG    1        0.112   1.358   0.083  0.00  0.00    +0.600 C 
ATOM     11  O   LIG    1        0.080   0.143   0.095  0.00  0.00    -0.510 OA
BRANCH   8  15
ATOM     12  C   LIG    1       -4.699   0.082  -0.045  0.00  0.00    -0.090 A 
ATOM     13  C   LIG    1       -3.633  -0.490   0.625  0.00  0.00    +0.020 A 
ATOM     14  C   LIG    1       -2.418   0.164   0.679  0.00  0.00    +0.020 A 
ATOM     15  C   LIG    1       -2.267   1.397   0.059  0.00  0.00    +0.140 A 
ATOM     16  C   LIG    1       -3.341   1.972  -0.608  0.00  0.00    -0.020 A 
ATOM     17  C   LIG    1       -4.551   1.310  -0.664  0.00  0.00    +0.020 A 
BRANCH  12  18
ATOM     18  C   LIG    1       -6.023  -0.634  -0.102  0.00  0.00    +0.030 C 
ATOM     19  C   LIG    1       -6.393  -0.907  -1.561  0.00  0.00    +0.030 C 
BRANCH  18  21
ATOM     20  C   LIG    1       -8.420  -0.539   0.598  0.00  0.00    +0.000 C 
ATOM     21  C   LIG    1       -7.103   0.237   0.543  0.00  0.00    +0.000 C 
ENDBRANCH  18  21
ENDBRANCH  12  18
ENDBRANCH   8  15
ENDBRANCH   1  10
BRANCH   3  22
ATOM     22  C   LIG    1        4.344   3.644   1.434  0.00  0.00    +0.400 C 
BRANCH  22  23
ATOM     23  C   LIG    1        5.471   2.650   1.551  0.00  0.00    -0.110 A 
ATOM     24  C   LIG    1        5.564   1.838   2.666  0.00  0.00    -0.010 A 
ATOM     25  C   LIG    1        6.596   0.921   2.770  0.00  0.00    +0.040 A 
ATOM     26  C   LIG    1        7.540   0.826   1.765  0.00  0.00    +0.070 A 
ATOM     27  C   LIG    1        7.450   1.642   0.652  0.00  0.00    +0.030 A 
ATOM     28 CL   LIG    1        4.383   1.962   3.932  0.00  0.00    -0.050 Cl
ATOM     29  C   LIG    1        6.416   2.554   0.545  0.00  0.00    +0.000 A 
ATOM     30 CL   LIG    1        6.303   3.579  -0.853  0.00  0.00    -0.030 Cl
ENDBRANCH  22  23
ENDBRANCH   3  22
TORSDOF 6
