REMARK  Name = ZINCqH00000045FM.0
REMARK                            x       y       z     vdW  Elec       q    Type
REMARK                         _______ _______ _______ _____ _____    ______ ____
ROOT
ATOM      1  N   LIG    1        1.313   1.753   2.419  0.00  0.00    -0.730 N 
ATOM      2  H   LIG    1        1.474   2.478   3.042  0.00  0.00    +0.400 HD
ATOM      3  C   LIG    1        2.341   1.206   1.740  0.00  0.00    +0.710 C 
ATOM      4  N   LIG    1        3.593   1.667   1.927  0.00  0.00    -0.690 N 
ATOM      5  H   LIG    1        3.746   2.442   2.491  0.00  0.00    +0.410 HD
ATOM      6  O   LIG    1        2.138   0.296   0.959  0.00  0.00    -0.560 OA
ENDROOT
BRANCH   4   7
ATOM      7  C   LIG    1        4.675   1.027   1.308  0.00  0.00    +0.170 A 
ATOM      8  C   LIG    1        4.648  -0.346   1.109  0.00  0.00    +0.050 A 
ATOM      9  C   LIG    1        5.714  -0.979   0.497  0.00  0.00    -0.020 A 
ATOM     10  C   LIG    1        6.812  -0.244   0.083  0.00  0.00    +0.100 A 
ATOM     11  C   LIG    1        6.843   1.133   0.282  0.00  0.00    +0.090 A 
ATOM     12  C   LIG    1        5.772   1.768   0.889  0.00  0.00    -0.040 A 
BRANCH  10  13
ATOM     13  O   LIG    1        7.861  -0.868  -0.518  0.00  0.00    -0.310 OA
ATOM     14  C   LIG    1        7.762  -2.284  -0.690  0.00  0.00    +0.250 C 
ENDBRANCH  10  13
BRANCH  11  15
ATOM     15  O   LIG    1        7.921   1.856  -0.125  0.00  0.00    -0.310 OA
BRANCH  15  16
ATOM     16  C   LIG    1        7.884   3.264   0.112  0.00  0.00    +0.590 C 
ATOM     17  F   LIG    1        7.767   3.504   1.485  0.00  0.00    -0.200 F 
ATOM     18  F   LIG    1        6.786   3.821  -0.554  0.00  0.00    -0.200 F 
ENDBRANCH  15  16
ENDBRANCH  11  15
ENDBRANCH   4   7
BRANCH   1  19
ATOM     19  C   LIG    1       -0.049   1.252   2.215  0.00  0.00    +0.340 C 
BRANCH  19  20
ATOM     20  C   LIG    1       -0.878   1.540   3.440  0.00  0.00    -0.250 A 
ATOM     21  C   LIG    1       -1.796   0.713   3.992  0.00  0.00    +0.250 A 
ATOM     22  N   LIG    1       -2.314   1.336   5.072  0.00  0.00    -0.370 N 
ATOM     23  N   LIG    1       -1.700   2.590   5.181  0.00  0.00    -0.290 NA
ATOM     24  C   LIG    1       -0.840   2.712   4.203  0.00  0.00    +0.230 A 
BRANCH  22  25
ATOM     25  C   LIG    1       -3.341   0.797   5.968  0.00  0.00    +0.320 C 
ATOM     26  C   LIG    1       -2.829   0.833   7.409  0.00  0.00    +0.040 C 
ENDBRANCH  22  25
ENDBRANCH  19  20
BRANCH  19  28
ATOM     27  C   LIG    1        0.097   1.553  -0.261  0.00  0.00    +0.020 C 
ATOM     28  C   LIG    1       -0.672   1.946   1.002  0.00  0.00    +0.000 C 
ENDBRANCH  19  28
ENDBRANCH   1  19
TORSDOF 8
