REMARK  Name = ZINCpe00000MAb3W.0
REMARK                            x       y       z     vdW  Elec       q    Type
REMARK                         _______ _______ _______ _____ _____    ______ ____
ROOT
ATOM      1  C   LIG    1        0.003  -0.005   0.011  0.00  0.00    +0.240 A 
ATOM      2  C   LIG    1        1.130  -0.558   0.615  0.00  0.00    -0.010 A 
ATOM      3  C   LIG    1        2.315   0.123   0.626  0.00  0.00    +0.160 A 
ATOM      4  C   LIG    1        2.395   1.380   0.028  0.00  0.00    -0.220 A 
ATOM      5  C   LIG    1        3.649   2.151   0.013  0.00  0.00    +0.570 A 
ATOM      6  N   LIG    1        3.650   3.361  -0.587  0.00  0.00    -0.560 N 
ATOM      7  C   LIG    1        2.542   3.858  -1.157  0.00  0.00    +0.700 A 
ATOM      8  N   LIG    1        1.371   3.198  -1.172  0.00  0.00    -0.540 N 
ATOM      9  C   LIG    1        0.203   3.805  -1.813  0.00  0.00    +0.350 C 
ATOM     10  O   LIG    1        2.599   4.953  -1.683  0.00  0.00    -0.540 OA
ATOM     11  C   LIG    1        4.886   4.147  -0.615  0.00  0.00    +0.340 C 
ATOM     12  O   LIG    1        4.659   1.709   0.527  0.00  0.00    -0.490 OA
ATOM     13  C   LIG    1        1.260   1.945  -0.584  0.00  0.00    +0.220 A 
ATOM     14  C   LIG    1        0.066   1.246  -0.588  0.00  0.00    -0.060 A 
ENDROOT
BRANCH   1  19
ATOM     15  C   LIG    1       -4.070  -3.777   0.368  0.00  0.00    +0.160 C 
ATOM     16  C   LIG    1       -2.748  -4.143  -0.321  0.00  0.00    +0.320 C 
ATOM     17  N   LIG    1       -2.351  -2.733  -0.193  0.00  0.00    -0.660 N 
ATOM     18  C   LIG    1       -1.190  -2.056  -0.099  0.00  0.00    +0.740 C 
ATOM     19  N   LIG    1       -1.199  -0.713   0.010  0.00  0.00    -0.680 N 
ATOM     20  H   LIG    1       -2.042  -0.238   0.088  0.00  0.00    +0.410 HD
ATOM     21  O   LIG    1       -0.133  -2.657  -0.113  0.00  0.00    -0.560 OA
ATOM     22  C   LIG    1       -3.781  -2.386  -0.205  0.00  0.00    +0.260 C 
BRANCH  15  23
ATOM     23  O   LIG    1       -5.218  -4.421  -0.189  0.00  0.00    -0.360 OA
BRANCH  23  25
ATOM     24  C   LIG    1       -7.617  -4.620   0.035  0.00  0.00    +0.050 C 
ATOM     25  C   LIG    1       -6.267  -4.656   0.754  0.00  0.00    +0.140 C 
ATOM     26  C   LIG    1       -6.071  -6.028   1.402  0.00  0.00    +0.020 C 
ENDBRANCH  23  25
ENDBRANCH  15  23
ENDBRANCH   1  19
TORSDOF 3
