REMARK  Name = ZINCvU00000009mD.0
REMARK                            x       y       z     vdW  Elec       q    Type
REMARK                         _______ _______ _______ _____ _____    ______ ____
ROOT
ATOM      1  C   LIG    1        4.688  -0.580   0.961  0.00  0.00    +0.470 C 
ATOM      2  O   LIG    1        4.848  -1.611   1.572  0.00  0.00    -0.480 OA
ENDROOT
BRANCH   1   3
ATOM      3  C   LIG    1        4.238  -0.619  -0.477  0.00  0.00    +0.150 C 
ATOM      4  C   LIG    1        2.944   0.136  -0.612  0.00  0.00    -0.160 A 
ATOM      5  C   LIG    1        2.964   1.520  -0.623  0.00  0.00    +0.080 A 
ATOM      6  C   LIG    1        1.786   2.232  -0.743  0.00  0.00    -0.010 A 
ATOM      7  C   LIG    1        0.581   1.563  -0.855  0.00  0.00    +0.060 A 
ATOM      8  C   LIG    1        0.555   0.183  -0.845  0.00  0.00    +0.000 A 
ATOM      9  C   LIG    1        1.738  -0.537  -0.722  0.00  0.00    +0.130 A 
ATOM     10  O   LIG    1        1.690  -1.890  -0.714  0.00  0.00    -0.240 OA
ATOM     11  C   LIG    1        2.800  -2.612  -1.000  0.00  0.00    +0.130 A 
ATOM     12  C   LIG    1        2.663  -3.939  -1.393  0.00  0.00    +0.000 A 
ATOM     13  C   LIG    1        3.781  -4.693  -1.688  0.00  0.00    +0.060 A 
ATOM     14  C   LIG    1        5.040  -4.129  -1.592  0.00  0.00    -0.010 A 
ATOM     15  C   LIG    1        5.179  -2.811  -1.202  0.00  0.00    +0.070 A 
ATOM     16  C   LIG    1        4.062  -2.050  -0.904  0.00  0.00    -0.140 A 
ENDBRANCH   1   3
BRANCH   1  17
ATOM     17  O   LIG    1        4.910   0.598   1.563  0.00  0.00    -0.330 OA
BRANCH  17  18
ATOM     18  C   LIG    1        5.341   0.559   2.949  0.00  0.00    +0.290 C 
BRANCH  18  19
ATOM     19  C   LIG    1        5.540   1.966   3.453  0.00  0.00    +0.460 C 
ATOM     20  O   LIG    1        5.340   2.904   2.720  0.00  0.00    -0.480 OA
BRANCH  19  21
ATOM     21  O   LIG    1        5.941   2.175   4.717  0.00  0.00    -0.330 OA
BRANCH  21  28
ATOM     22  C   LIG    1        5.827   3.674   6.633  0.00  0.00    +0.010 C 
ATOM     23  C   LIG    1        6.799   2.783   7.409  0.00  0.00    +0.030 C 
ATOM     24  C   LIG    1        8.235   3.227   7.126  0.00  0.00    +0.010 C 
ATOM     25  C   LIG    1        8.520   3.108   5.628  0.00  0.00    -0.020 C 
ATOM     26  C   LIG    1        7.548   3.999   4.851  0.00  0.00    +0.020 C 
ATOM     27  C   LIG    1        8.340   1.653   5.188  0.00  0.00    +0.020 C 
ATOM     28  C   LIG    1        6.112   3.555   5.134  0.00  0.00    +0.190 C 
BRANCH  22  30
ATOM     29  C   LIG    1        4.106   3.349   8.414  0.00  0.00    +0.010 C 
ATOM     30  C   LIG    1        4.391   3.230   6.916  0.00  0.00    -0.010 C 
ATOM     31  C   LIG    1        3.419   4.122   6.139  0.00  0.00    +0.020 C 
ENDBRANCH  22  30
ENDBRANCH  21  28
ENDBRANCH  19  21
ENDBRANCH  18  19
ENDBRANCH  17  18
ENDBRANCH   1  17
TORSDOF 7
