REMARK  Name = ZINCrH00000No4Px.0
REMARK                            x       y       z     vdW  Elec       q    Type
REMARK                         _______ _______ _______ _____ _____    ______ ____
ROOT
ATOM      1  N   LIG    1       -1.608  -1.192  -1.371  0.00  0.00    -0.550 N 
ENDROOT
BRANCH   1   6
ATOM      2  C   LIG    1       -4.433   0.383  -5.017  0.00  0.00    +0.190 C 
ATOM      3  C   LIG    1       -3.842   0.424  -3.632  0.00  0.00    +0.310 A 
ATOM      4  N   LIG    1       -4.170   1.360  -2.789  0.00  0.00    -0.500 NA
ATOM      5  S   LIG    1       -3.288   1.035  -1.373  0.00  0.00    +0.150 S 
ATOM      6  C   LIG    1       -2.517  -0.367  -2.010  0.00  0.00    +0.360 A 
ATOM      7  N   LIG    1       -2.976  -0.480  -3.238  0.00  0.00    -0.560 NA
ENDBRANCH   1   6
BRANCH   1   8
ATOM      8  C   LIG    1       -1.204  -0.907   0.008  0.00  0.00    +0.410 C 
BRANCH   8   9
ATOM      9  C   LIG    1        0.002  -0.004   0.002  0.00  0.00    -0.240 A 
ATOM     10  C   LIG    1        1.295  -0.403  -0.013  0.00  0.00    +0.290 A 
ATOM     11  N   LIG    1        2.067   0.704  -0.014  0.00  0.00    -0.440 N 
ATOM     12  N   LIG    1        1.220   1.820   0.000  0.00  0.00    -0.260 NA
ATOM     13  C   LIG    1       -0.017   1.395   0.010  0.00  0.00    +0.290 A 
BRANCH  11  14
ATOM     14  C   LIG    1        3.532   0.734  -0.028  0.00  0.00    +0.700 C 
ATOM     15  F   LIG    1        4.027  -0.403   0.621  0.00  0.00    -0.150 F 
ATOM     16  F   LIG    1        3.981   1.881   0.634  0.00  0.00    -0.140 F 
ATOM     17  F   LIG    1        3.985   0.750  -1.351  0.00  0.00    -0.150 F 
ENDBRANCH  11  14
ENDBRANCH   8   9
ENDBRANCH   1   8
BRANCH   1  18
ATOM     18  C   LIG    1       -1.050  -2.350  -2.073  0.00  0.00    +0.330 C 
BRANCH  18  19
ATOM     19  C   LIG    1       -1.940  -3.571  -1.832  0.00  0.00    +0.150 C 
BRANCH  19  20
ATOM     20  O   LIG    1       -3.221  -3.351  -2.424  0.00  0.00    -0.360 OA
BRANCH  20  21
ATOM     21  C   LIG    1       -4.134  -4.438  -2.255  0.00  0.00    +0.210 C 
BRANCH  21  22
ATOM     22  C   LIG    1       -5.446  -4.099  -2.915  0.00  0.00    -0.090 A 
ATOM     23  C   LIG    1       -6.439  -3.463  -2.194  0.00  0.00    +0.020 A 
ATOM     24  C   LIG    1       -7.640  -3.148  -2.801  0.00  0.00    +0.000 A 
ATOM     25  C   LIG    1       -7.853  -3.479  -4.126  0.00  0.00    +0.010 A 
ATOM     26  C   LIG    1       -6.862  -4.120  -4.846  0.00  0.00    +0.000 A 
ATOM     27  C   LIG    1       -5.658  -4.430  -4.240  0.00  0.00    +0.020 A 
ENDBRANCH  21  22
ENDBRANCH  20  21
ENDBRANCH  19  20
ENDBRANCH  18  19
ENDBRANCH   1  18
TORSDOF 9
