REMARK  Name = ZINCrH000008uzl5.0
REMARK                            x       y       z     vdW  Elec       q    Type
REMARK                         _______ _______ _______ _____ _____    ______ ____
ROOT
ATOM      1  C   LIG    1       -0.277   1.278   8.752  0.00  0.00    +0.380 C 
ATOM      2  C   LIG    1       -1.379   0.291   9.146  0.00  0.00    +0.070 C 
ENDROOT
BRANCH   1   3
ATOM      3  C   LIG    1        0.808   1.262   9.798  0.00  0.00    +0.170 A 
ATOM      4  N   LIG    1        1.030   2.183  10.703  0.00  0.00    -0.450 NA
ATOM      5  C   LIG    1        2.093   1.745  11.414  0.00  0.00    +0.220 A 
ATOM      6  N   LIG    1        2.455   0.598  10.901  0.00  0.00    -0.360 NA
ATOM      7  O   LIG    1        1.728   0.308   9.974  0.00  0.00    +0.090 OA
BRANCH   5   8
ATOM      8  C   LIG    1        2.732   2.438  12.561  0.00  0.00    -0.010 A 
ATOM      9  C   LIG    1        2.239   3.664  12.999  0.00  0.00    +0.060 A 
ATOM     10  C   LIG    1        2.833   4.303  14.069  0.00  0.00    +0.050 A 
ATOM     11  C   LIG    1        3.923   3.733  14.700  0.00  0.00    -0.090 A 
ATOM     12  C   LIG    1        4.422   2.516  14.265  0.00  0.00    +0.100 A 
ATOM     13  F   LIG    1        5.488   1.964  14.885  0.00  0.00    -0.130 F 
ATOM     14  C   LIG    1        4.572   4.439  15.863  0.00  0.00    +0.110 C 
ATOM     15  C   LIG    1        3.831   1.866  13.198  0.00  0.00    +0.030 A 
ENDBRANCH   5   8
ENDBRANCH   1   3
BRANCH   1  17
ATOM     16  C   LIG    1       -0.304   1.293   6.316  0.00  0.00    +0.530 C 
ATOM     17  N   LIG    1        0.287   0.889   7.458  0.00  0.00    -0.730 N 
ATOM     18  H   LIG    1        1.086   0.340   7.422  0.00  0.00    +0.410 HD
ATOM     19  O   LIG    1       -1.303   1.980   6.361  0.00  0.00    -0.520 OA
BRANCH  16  20
ATOM     20  C   LIG    1        0.277   0.893   4.984  0.00  0.00    +0.050 C 
BRANCH  20  21
ATOM     21  C   LIG    1       -0.578   1.479   3.859  0.00  0.00    +0.130 C 
BRANCH  21  22
ATOM     22  C   LIG    1        0.011   1.072   2.506  0.00  0.00    +0.030 C 
ATOM     23  N   LIG    1        1.454   0.835   2.413  0.00  0.00    -0.120 NA
ATOM     24  N   LIG    1        0.751  -0.189   2.414  0.00  0.00    -0.120 NA
BRANCH  22  25
ATOM     25  C   LIG    1       -0.729   1.579   1.267  0.00  0.00    +0.120 C 
BRANCH  25  26
ATOM     26  C   LIG    1       -0.013   1.086   0.008  0.00  0.00    +0.160 C 
BRANCH  26  28
ATOM     27  C   LIG    1       -1.292   1.962  -2.136  0.00  0.00    +0.030 C 
ATOM     28  C   LIG    1       -0.725   1.573  -1.185  0.00  0.00    -0.190 C 
ENDBRANCH  26  28
ENDBRANCH  25  26
ENDBRANCH  22  25
ENDBRANCH  21  22
ENDBRANCH  20  21
ENDBRANCH  16  20
ENDBRANCH   1  17
TORSDOF 9
