REMARK  Name = ZINCah0000002gGR.0
REMARK                            x       y       z     vdW  Elec       q    Type
REMARK                         _______ _______ _______ _____ _____    ______ ____
ROOT
ATOM      1 BR   LIG    1        2.812   0.805  -0.021  0.00  0.00    -0.010 Br
ATOM      2  C   LIG    1        1.171   1.745   0.000  0.00  0.00    -0.090 A 
ATOM      3  C   LIG    1       -0.013   1.076   0.008  0.00  0.00    +0.310 A 
ATOM      4  N   LIG    1       -1.185   1.697   0.017  0.00  0.00    -0.460 NA
ATOM      5  C   LIG    1       -1.313   3.002   0.029  0.00  0.00    +0.430 A 
ATOM      6  C   LIG    1       -0.167   3.815   0.023  0.00  0.00    -0.030 A 
ATOM      7  N   LIG    1        0.108   5.108   0.028  0.00  0.00    -0.230 NA
ATOM      8  N   LIG    1        1.387   5.261   0.017  0.00  0.00    -0.180 N 
ATOM      9  H   LIG    1        1.823   6.128   0.018  0.00  0.00    +0.480 HD
ATOM     10  N   LIG    1        2.023   4.142   0.005  0.00  0.00    -0.250 NA
ATOM     11  C   LIG    1        1.149   3.153   0.007  0.00  0.00    +0.060 A 
ENDROOT
TORSDOF 0
