REMARK  Name = ZINCrH000004mZqy.0
REMARK                            x       y       z     vdW  Elec       q    Type
REMARK                         _______ _______ _______ _____ _____    ______ ____
ROOT
ATOM      1  N   LIG    1        7.083  -1.577   3.365  0.00  0.00    -0.720 N 
ATOM      2  H   LIG    1        7.633  -0.785   3.259  0.00  0.00    +0.400 HD
ATOM      3  C   LIG    1        5.821  -1.589   2.893  0.00  0.00    +0.560 C 
ATOM      4  O   LIG    1        5.131  -2.581   3.027  0.00  0.00    -0.520 OA
ENDROOT
BRANCH   3   5
ATOM      5  C   LIG    1        5.275  -0.395   2.213  0.00  0.00    -0.110 A 
ATOM      6  C   LIG    1        6.065   0.745   2.058  0.00  0.00    +0.020 A 
ATOM      7  C   LIG    1        5.553   1.858   1.422  0.00  0.00    +0.040 A 
ATOM      8  C   LIG    1        4.260   1.846   0.932  0.00  0.00    +0.000 A 
ATOM      9  C   LIG    1        3.464   0.717   1.086  0.00  0.00    +0.160 A 
ATOM     10  C   LIG    1        3.969  -0.405   1.723  0.00  0.00    +0.070 A 
BRANCH   9  11
ATOM     11  N   LIG    1        2.154   0.712   0.592  0.00  0.00    -0.560 N 
ATOM     12  C   LIG    1        1.483   1.882   0.013  0.00  0.00    +0.260 C 
ATOM     13  C   LIG    1       -0.023   1.539   0.021  0.00  0.00    +0.060 C 
ATOM     14  C   LIG    1        0.006  -0.007  -0.007  0.00  0.00    +0.070 C 
ATOM     15  C   LIG    1        1.349  -0.364   0.588  0.00  0.00    +0.510 C 
ATOM     16  O   LIG    1        1.656  -1.462   1.002  0.00  0.00    -0.500 OA
ENDBRANCH   9  11
ENDBRANCH   3   5
BRANCH   1  17
ATOM     17  C   LIG    1        7.624  -2.760   4.040  0.00  0.00    +0.320 C 
BRANCH  17  21
ATOM     18  C   LIG    1       10.757  -1.578   6.695  0.00  0.00    +0.130 A 
ATOM     19  C   LIG    1        9.854  -2.559   7.079  0.00  0.00    -0.020 A 
ATOM     20  C   LIG    1        8.842  -2.939   6.218  0.00  0.00    +0.070 A 
ATOM     21  C   LIG    1        8.729  -2.343   4.976  0.00  0.00    -0.130 A 
ATOM     22  C   LIG    1        9.630  -1.368   4.590  0.00  0.00    +0.050 A 
ATOM     23  C   LIG    1       10.640  -0.980   5.449  0.00  0.00    -0.070 A 
BRANCH  18  25
ATOM     24  C   LIG    1       12.646  -0.186   7.079  0.00  0.00    +0.250 C 
ATOM     25  O   LIG    1       11.753  -1.202   7.540  0.00  0.00    -0.320 OA
ENDBRANCH  18  25
ENDBRANCH  17  21
BRANCH  17  26
ATOM     26  C   LIG    1        8.180  -3.732   2.997  0.00  0.00    -0.060 C 
ATOM     27  C   LIG    1        8.265  -3.243   1.550  0.00  0.00    +0.000 C 
ATOM     28  C   LIG    1        7.207  -4.274   1.948  0.00  0.00    +0.030 C 
ENDBRANCH  17  26
ENDBRANCH   1  17
TORSDOF 6
