REMARK  Name = ZINCrD00000F5LIR.0
REMARK                            x       y       z     vdW  Elec       q    Type
REMARK                         _______ _______ _______ _____ _____    ______ ____
ROOT
ATOM      1  N   LIG    1       -2.096   0.035   2.132  0.00  0.00    -0.730 N 
ATOM      2  H   LIG    1       -1.298  -0.335   1.722  0.00  0.00    +0.400 HD
ATOM      3  C   LIG    1       -2.881   0.881   1.436  0.00  0.00    +0.490 C 
ATOM      4  O   LIG    1       -3.878   1.343   1.948  0.00  0.00    -0.520 OA
ENDROOT
BRANCH   1   5
ATOM      5  C   LIG    1       -2.447  -0.326   3.508  0.00  0.00    +0.280 C 
BRANCH   5   7
ATOM      6  C   LIG    1       -1.831  -1.766   5.454  0.00  0.00    +0.040 C 
ATOM      7  C   LIG    1       -1.400  -1.292   4.065  0.00  0.00    +0.230 C 
BRANCH   7   8
ATOM      8  N   LIG    1       -1.276  -2.447   3.172  0.00  0.00    -0.730 N 
ATOM      9  H   LIG    1       -2.019  -2.700   2.601  0.00  0.00    +0.400 HD
ATOM     10  C   LIG    1       -0.131  -3.157   3.143  0.00  0.00    +0.520 C 
ATOM     11  O   LIG    1        0.797  -2.841   3.857  0.00  0.00    -0.520 OA
BRANCH  10  12
ATOM     12  C   LIG    1       -0.004  -4.345   2.224  0.00  0.00    +0.160 C 
BRANCH  12  13
ATOM     13  C   LIG    1        1.363  -4.959   2.383  0.00  0.00    -0.150 A 
ATOM     14  C   LIG    1        1.678  -5.918   3.255  0.00  0.00    +0.030 A 
ATOM     15  C   LIG    1        2.999  -6.329   3.217  0.00  0.00    +0.060 A 
ATOM     16  C   LIG    1        3.760  -5.697   2.321  0.00  0.00    -0.210 A 
ATOM     17 BR   LIG    1        5.599  -6.021   2.029  0.00  0.00    +0.010 Br
ATOM     18  S   LIG    1        2.788  -4.515   1.454  0.00  0.00    +0.170 S 
ENDBRANCH  12  13
ENDBRANCH  10  12
ENDBRANCH   7   8
ENDBRANCH   5   7
ENDBRANCH   1   5
BRANCH   3  19
ATOM     19  C   LIG    1       -2.519   1.252   0.021  0.00  0.00    +0.280 C 
BRANCH  19  20
ATOM     20  C   LIG    1       -1.224   2.023   0.019  0.00  0.00    -0.160 A 
ATOM     21  C   LIG    1       -1.244   3.405   0.032  0.00  0.00    +0.120 A 
ATOM     22  C   LIG    1       -0.057   4.114   0.025  0.00  0.00    +0.020 A 
ATOM     23  C   LIG    1        1.152   3.441   0.010  0.00  0.00    +0.150 A 
ATOM     24  C   LIG    1        1.173   2.056   0.002  0.00  0.00    -0.110 A 
ATOM     25 CL   LIG    1        2.689   1.210  -0.018  0.00  0.00    -0.010 Cl
ATOM     26  F   LIG    1        2.312   4.135   0.002  0.00  0.00    -0.110 F 
ATOM     27  C   LIG    1       -0.016   1.347   0.009  0.00  0.00    +0.150 A 
ATOM     28  F   LIG    1        0.002  -0.004   0.002  0.00  0.00    -0.110 F 
ENDBRANCH  19  20
BRANCH  19  29
ATOM     29  O   LIG    1       -3.556   2.060  -0.539  0.00  0.00    -0.520 OA
ATOM     30  H   LIG    1       -3.714   2.885  -0.060  0.00  0.00    +0.390 HD
ENDBRANCH  19  29
ENDBRANCH   3  19
TORSDOF 8
