REMARK  Name = ZINCrD000000AFPl.0
REMARK                            x       y       z     vdW  Elec       q    Type
REMARK                         _______ _______ _______ _____ _____    ______ ____
ROOT
ATOM      1  O   LIG    1        7.085   0.035   3.061  0.00  0.00    -0.530 OA
ATOM      2  C   LIG    1        7.683  -0.406   2.102  0.00  0.00    +0.560 C 
ATOM      3  N   LIG    1        7.002  -0.972   1.086  0.00  0.00    -0.600 N 
ATOM      4  C   LIG    1        7.698  -1.397  -0.137  0.00  0.00    +0.260 C 
ATOM      5  C   LIG    1        7.007  -0.757  -1.345  0.00  0.00    +0.030 C 
ATOM      6  C   LIG    1        5.516  -1.102  -1.318  0.00  0.00    +0.040 C 
ATOM      7  C   LIG    1        4.883  -0.538  -0.044  0.00  0.00    +0.090 C 
ATOM      8  C   LIG    1        5.550  -1.175   1.179  0.00  0.00    +0.300 C 
ENDROOT
BRANCH   7   9
ATOM      9  C   LIG    1        3.409  -0.851  -0.033  0.00  0.00    +0.150 A 
ATOM     10  N   LIG    1        2.872  -2.044  -0.060  0.00  0.00    -0.240 NA
ATOM     11  N   LIG    1        1.588  -1.955  -0.040  0.00  0.00    -0.290 NA
ATOM     12  C   LIG    1        1.234  -0.681   0.001  0.00  0.00    +0.190 A 
ATOM     13  C   LIG    1       -0.009  -0.021   0.037  0.00  0.00    +0.080 A 
ATOM     14  C   LIG    1       -0.040   1.338   0.076  0.00  0.00    +0.060 A 
ATOM     15  C   LIG    1        1.165   2.062   0.081  0.00  0.00    +0.030 A 
ATOM     16  C   LIG    1        2.349   1.417   0.046  0.00  0.00    +0.230 A 
ATOM     17  N   LIG    1        2.394   0.054   0.006  0.00  0.00    -0.390 N 
ENDBRANCH   7   9
BRANCH   2  18
ATOM     18  C   LIG    1        9.187  -0.321   2.047  0.00  0.00    -0.130 C 
ATOM     19  C   LIG    1        9.867   0.734   2.921  0.00  0.00    +0.090 C 
ATOM     20  C   LIG    1        9.801   0.924   1.404  0.00  0.00    +0.060 C 
BRANCH  18  21
ATOM     21  C   LIG    1        9.905  -1.631   1.851  0.00  0.00    -0.010 A 
ATOM     22  C   LIG    1       11.120  -1.662   1.193  0.00  0.00    +0.000 A 
ATOM     23  C   LIG    1       11.782  -2.862   1.017  0.00  0.00    +0.060 A 
ATOM     24  C   LIG    1       11.225  -4.035   1.490  0.00  0.00    -0.010 A 
ATOM     25  C   LIG    1       10.005  -4.007   2.145  0.00  0.00    +0.110 A 
ATOM     26  F   LIG    1        9.459  -5.153   2.607  0.00  0.00    -0.140 F 
ATOM     27  C   LIG    1        9.345  -2.803   2.325  0.00  0.00    -0.020 A 
ENDBRANCH  18  21
ENDBRANCH   2  18
TORSDOF 3
