REMARK  Name = ZINCvU0000000J4h.0
REMARK                            x       y       z     vdW  Elec       q    Type
REMARK                         _______ _______ _______ _____ _____    ______ ____
ROOT
ATOM      1  C   LIG    1       -2.124   8.880   3.606  0.00  0.00    +0.520 C 
ATOM      2  N   LIG    1       -2.729   9.448   4.668  0.00  0.00    -0.720 N 
ATOM      3  H   LIG    1       -3.115   8.890   5.362  0.00  0.00    +0.400 HD
ATOM      4  O   LIG    1       -1.642   9.577   2.739  0.00  0.00    -0.500 OA
ENDROOT
BRANCH   1   5
ATOM      5  C   LIG    1       -2.046   7.379   3.497  0.00  0.00    +0.230 C 
BRANCH   5   6
ATOM      6  O   LIG    1       -1.363   7.024   2.293  0.00  0.00    -0.260 OA
BRANCH   6  14
ATOM      7  C   LIG    1       -0.013   1.086   0.008  0.00  0.00    +0.130 C 
ATOM      8  C   LIG    1       -0.718   1.572   1.248  0.00  0.00    +0.040 A 
ATOM      9  C   LIG    1       -1.221   0.694   2.154  0.00  0.00    -0.090 A 
ATOM     10  C   LIG    1       -1.876   1.173   3.307  0.00  0.00    +0.510 A 
ATOM     11  O   LIG    1       -2.021   2.487   3.540  0.00  0.00    -0.270 OA
ATOM     12  C   LIG    1       -1.545   3.413   2.680  0.00  0.00    +0.200 A 
ATOM     13  C   LIG    1       -1.703   4.766   2.936  0.00  0.00    -0.060 A 
ATOM     14  C   LIG    1       -1.207   5.699   2.041  0.00  0.00    +0.200 A 
ATOM     15  C   LIG    1       -0.549   5.288   0.882  0.00  0.00    -0.090 A 
ATOM     16  C   LIG    1       -0.384   3.959   0.614  0.00  0.00    +0.150 A 
ATOM     17 CL   LIG    1        0.065   6.474  -0.228  0.00  0.00    -0.030 Cl
ATOM     18  O   LIG    1       -2.322   0.375   4.111  0.00  0.00    -0.460 OA
ATOM     19  C   LIG    1       -0.875   3.004   1.512  0.00  0.00    -0.180 A 
ENDBRANCH   6  14
ENDBRANCH   5   6
ENDBRANCH   1   5
BRANCH   2  20
ATOM     20  C   LIG    1       -2.805  10.907   4.774  0.00  0.00    +0.390 C 
BRANCH  20  21
ATOM     21  C   LIG    1       -2.937  11.299   6.224  0.00  0.00    -0.110 A 
ATOM     22  C   LIG    1       -3.747  10.562   7.067  0.00  0.00    +0.050 A 
ATOM     23  C   LIG    1       -3.866  10.917   8.397  0.00  0.00    -0.010 A 
ATOM     24  C   LIG    1       -3.181  12.018   8.883  0.00  0.00    +0.110 A 
ATOM     25  C   LIG    1       -2.374  12.759   8.036  0.00  0.00    -0.010 A 
ATOM     26  F   LIG    1       -3.300  12.369  10.182  0.00  0.00    -0.140 F 
ATOM     27  C   LIG    1       -2.253  12.398   6.707  0.00  0.00    +0.070 A 
ENDBRANCH  20  21
BRANCH  20  28
ATOM     28  C   LIG    1       -4.003  11.405   4.008  0.00  0.00    -0.190 A 
ATOM     29  C   LIG    1       -4.030  12.506   3.255  0.00  0.00    +0.020 A 
ATOM     30  C   LIG    1       -5.245  12.765   2.644  0.00  0.00    +0.010 A 
ATOM     31  C   LIG    1       -6.204  11.873   2.900  0.00  0.00    -0.040 A 
ATOM     32  S   LIG    1       -5.576  10.620   3.962  0.00  0.00    +0.100 S 
ENDBRANCH  20  28
ENDBRANCH   2  20
TORSDOF 6
