REMARK  Name = ZINCrH000004tW6Q.0
REMARK                            x       y       z     vdW  Elec       q    Type
REMARK                         _______ _______ _______ _____ _____    ______ ____
ROOT
ATOM      1  O   LIG    1       -2.628   3.999   0.152  0.00  0.00    -0.500 OA
ATOM      2  C   LIG    1       -3.666   3.371   0.160  0.00  0.00    +0.520 C 
ATOM      3  N   LIG    1       -3.642   2.028   0.051  0.00  0.00    -0.670 N 
ATOM      4  H   LIG    1       -4.473   1.533  -0.024  0.00  0.00    +0.420 HD
ENDROOT
BRANCH   3   5
ATOM      5  C   LIG    1       -2.418   1.348   0.045  0.00  0.00    +0.150 A 
ATOM      6  C   LIG    1       -1.304   1.917   0.644  0.00  0.00    +0.020 A 
ATOM      7  C   LIG    1       -0.092   1.242   0.632  0.00  0.00    +0.180 A 
ATOM      8  C   LIG    1        0.001  -0.007   0.031  0.00  0.00    -0.120 A 
ATOM      9  C   LIG    1        1.317  -0.740   0.026  0.00  0.00    +0.110 C 
ATOM     10  C   LIG    1        2.463   0.267  -0.080  0.00  0.00    +0.080 C 
ATOM     11  C   LIG    1        2.269   1.372   0.924  0.00  0.00    +0.520 C 
ATOM     12  O   LIG    1        3.236   1.869   1.463  0.00  0.00    -0.520 OA
ATOM     13  C   LIG    1       -1.111  -0.575  -0.561  0.00  0.00    +0.060 A 
ATOM     14  N   LIG    1        1.036   1.814   1.231  0.00  0.00    -0.660 N 
ATOM     15  H   LIG    1        0.928   2.535   1.871  0.00  0.00    +0.410 HD
ATOM     16  C   LIG    1       -2.320   0.097  -0.556  0.00  0.00    +0.050 A 
ATOM     17  F   LIG    1       -3.405  -0.461  -1.135  0.00  0.00    -0.140 F 
ENDBRANCH   3   5
BRANCH   2  18
ATOM     18  C   LIG    1       -4.982   4.093   0.292  0.00  0.00    +0.120 C 
BRANCH  18  19
ATOM     19  C   LIG    1       -4.733   5.576   0.397  0.00  0.00    -0.090 A 
ATOM     20  C   LIG    1       -4.558   6.160   1.638  0.00  0.00    +0.070 A 
ATOM     21  C   LIG    1       -4.324   7.518   1.737  0.00  0.00    -0.050 A 
ATOM     22  C   LIG    1       -4.277   8.298   0.590  0.00  0.00    +0.110 A 
ATOM     23  C   LIG    1       -4.459   7.710  -0.653  0.00  0.00    +0.020 A 
ATOM     24  C   LIG    1       -4.686   6.351  -0.747  0.00  0.00    +0.070 A 
BRANCH  22  25
ATOM     25  O   LIG    1       -4.054   9.635   0.685  0.00  0.00    -0.310 OA
BRANCH  25  26
ATOM     26  C   LIG    1       -3.876  10.171   1.998  0.00  0.00    +0.600 C 
ATOM     27  F   LIG    1       -5.022   9.926   2.761  0.00  0.00    -0.160 F 
ATOM     28  F   LIG    1       -3.658  11.550   1.912  0.00  0.00    -0.130 F 
ATOM     29  F   LIG    1       -2.772   9.562   2.605  0.00  0.00    -0.160 F 
ENDBRANCH  25  26
ENDBRANCH  22  25
ENDBRANCH  18  19
ENDBRANCH   2  18
TORSDOF 5
