REMARK  Name = ZINCpk000000mWzA.0
REMARK                            x       y       z     vdW  Elec       q    Type
REMARK                         _______ _______ _______ _____ _____    ______ ____
ROOT
ATOM      1  C   LIG    1        1.726   2.185   2.382  0.00  0.00    +0.250 C 
ENDROOT
BRANCH   1   2
ATOM      2  C   LIG    1        0.737   3.230   1.934  0.00  0.00    +0.500 C 
ATOM      3  N   LIG    1       -0.392   2.860   1.296  0.00  0.00    -0.610 N 
ATOM      4  C   LIG    1       -0.627   1.454   1.054  0.00  0.00    +0.270 C 
ATOM      5  C   LIG    1        0.001   1.048  -0.302  0.00  0.00    -0.020 C 
ATOM      6  C   LIG    1       -0.779   1.618  -1.412  0.00  0.00    +0.160 C 
ATOM      7  C   LIG    1       -0.800   3.143  -1.447  0.00  0.00    +0.050 C 
ATOM      8  C   LIG    1       -1.897   3.648  -0.541  0.00  0.00    -0.070 C 
ATOM      9  C   LIG    1       -3.011   2.603  -0.462  0.00  0.00    +0.030 C 
ATOM     10  C   LIG    1       -2.466   4.950  -1.110  0.00  0.00    +0.040 C 
ATOM     11  C   LIG    1       -1.340   3.908   0.870  0.00  0.00    +0.280 C 
ATOM     12  O   LIG    1        0.955   4.404   2.148  0.00  0.00    -0.500 OA
BRANCH   6  13
ATOM     13  O   LIG    1       -0.226   1.147  -2.643  0.00  0.00    -0.570 OA
ATOM     14  H   LIG    1       -0.240   0.185  -2.738  0.00  0.00    +0.380 HD
ENDBRANCH   6  13
ENDBRANCH   1   2
BRANCH   1  17
ATOM     15  C   LIG    1        4.508   4.441   3.734  0.00  0.00    +0.090 C 
ATOM     16  C   LIG    1        3.164   3.796   3.510  0.00  0.00    +0.520 C 
ATOM     17  N   LIG    1        3.032   2.811   2.600  0.00  0.00    -0.720 N 
ATOM     18  H   LIG    1        3.802   2.517   2.089  0.00  0.00    +0.400 HD
ATOM     19  O   LIG    1        2.202   4.165   4.149  0.00  0.00    -0.520 OA
ENDBRANCH   1  17
BRANCH   1  20
ATOM     20  C   LIG    1        1.241   1.550   3.687  0.00  0.00    +0.100 C 
BRANCH  20  21
ATOM     21  C   LIG    1        2.164   0.423   4.071  0.00  0.00    -0.090 A 
ATOM     22  C   LIG    1        1.907  -0.861   3.627  0.00  0.00    +0.030 A 
ATOM     23  C   LIG    1        2.755  -1.895   3.972  0.00  0.00    -0.010 A 
ATOM     24  C   LIG    1        3.859  -1.647   4.775  0.00  0.00    +0.100 A 
ATOM     25  C   LIG    1        4.112  -0.359   5.224  0.00  0.00    -0.010 A 
ATOM     26  C   LIG    1        3.264   0.673   4.871  0.00  0.00    +0.030 A 
BRANCH  24  27
ATOM     27  O   LIG    1        4.692  -2.664   5.120  0.00  0.00    -0.500 OA
ATOM     28  H   LIG    1        4.445  -3.113   5.940  0.00  0.00    +0.390 HD
ENDBRANCH  24  27
ENDBRANCH  20  21
ENDBRANCH   1  20
TORSDOF 6
