REMARK  Name = ZINCpe00000gMi9k.0
REMARK                            x       y       z     vdW  Elec       q    Type
REMARK                         _______ _______ _______ _____ _____    ______ ____
ROOT
ATOM      1  C   LIG    1       -3.635   3.853  -5.259  0.00  0.00    -0.140 A 
ATOM      2  C   LIG    1       -3.893   4.823  -4.380  0.00  0.00    -0.010 A 
ATOM      3  C   LIG    1       -2.946   4.973  -3.382  0.00  0.00    +0.180 A 
ATOM      4  C   LIG    1       -1.914   4.131  -3.456  0.00  0.00    -0.800 A 
ATOM      5  S   LIG    1       -2.118   3.067  -4.841  0.00  0.00    +0.230 S 
ENDROOT
BRANCH   4   6
ATOM      6  S   LIG    1       -0.557   4.087  -2.332  0.00  0.00    +2.710 S 
ATOM      7  O   LIG    1        0.523   3.485  -3.031  0.00  0.00    -0.940 OA
ATOM      8  O   LIG    1       -0.479   5.379  -1.746  0.00  0.00    -0.940 OA
BRANCH   6   9
ATOM      9  N   LIG    1       -0.964   3.044  -1.112  0.00  0.00    -0.990 NA
ATOM     10  C   LIG    1       -1.504   3.531   0.171  0.00  0.00    +0.290 C 
ATOM     11  C   LIG    1       -2.777   2.749   0.507  0.00  0.00    +0.220 C 
ATOM     12  O   LIG    1       -2.530   1.342   0.398  0.00  0.00    -0.360 OA
ATOM     13  C   LIG    1       -2.150   0.938  -0.914  0.00  0.00    +0.140 C 
ATOM     14  C   LIG    1       -1.992  -0.577  -1.024  0.00  0.00    +0.030 C 
ATOM     15  C   LIG    1       -1.546  -0.914  -2.453  0.00  0.00    +0.210 C 
ATOM     16  O   LIG    1       -0.343  -0.216  -2.771  0.00  0.00    -0.360 OA
ATOM     17  C   LIG    1       -0.433   1.211  -2.689  0.00  0.00    +0.230 C 
ATOM     18  C   LIG    1       -0.805   1.593  -1.259  0.00  0.00    +0.200 C 
ENDBRANCH   6   9
ENDBRANCH   4   6
BRANCH   1  19
ATOM     19  C   LIG    1       -4.510   3.486  -6.430  0.00  0.00    +0.120 C 
BRANCH  19  20
ATOM     20  C   LIG    1       -4.091   4.302  -7.654  0.00  0.00    +0.300 C 
BRANCH  20  22
ATOM     21  C   LIG    1       -4.754   4.542  -9.987  0.00  0.00    +0.650 C 
ATOM     22  N   LIG    1       -4.942   3.945  -8.793  0.00  0.00    -0.710 N 
ATOM     23  H   LIG    1       -5.639   3.280  -8.687  0.00  0.00    +0.410 HD
ATOM     24  O   LIG    1       -3.880   5.375 -10.119  0.00  0.00    -0.570 OA
BRANCH  21  26
ATOM     25  C   LIG    1       -5.277   4.897 -12.288  0.00  0.00    +0.300 C 
ATOM     26  O   LIG    1       -5.536   4.214 -11.033  0.00  0.00    -0.370 OA
ENDBRANCH  21  26
ENDBRANCH  20  22
ENDBRANCH  19  20
ENDBRANCH   1  19
TORSDOF 6
