REMARK  Name = ZINCpe00000MJJk2.0
REMARK                            x       y       z     vdW  Elec       q    Type
REMARK                         _______ _______ _______ _____ _____    ______ ____
ROOT
ATOM      1  N   LIG    1        4.757   5.166  -1.306  0.00  0.00    -0.480 N 
ATOM      2  C   LIG    1        4.401   4.330  -0.151  0.00  0.00    +0.210 C 
ATOM      3  C   LIG    1        2.997   3.755  -0.356  0.00  0.00    +0.230 C 
ATOM      4  N   LIG    1        2.038   4.856  -0.521  0.00  0.00    -0.470 N 
ATOM      5  C   LIG    1        2.395   5.692  -1.676  0.00  0.00    +0.230 C 
ATOM      6  C   LIG    1        3.799   6.268  -1.471  0.00  0.00    +0.220 C 
ENDROOT
BRANCH   1  11
ATOM      7  C   LIG    1        8.804   7.568   0.376  0.00  0.00    +0.160 C 
ATOM      8  C   LIG    1        7.887   6.713  -0.462  0.00  0.00    +0.040 A 
ATOM      9  N   LIG    1        8.223   6.074  -1.554  0.00  0.00    -0.260 NA
ATOM     10  N   LIG    1        7.097   5.391  -2.033  0.00  0.00    -0.350 N 
ATOM     11  C   LIG    1        6.062   5.652  -1.188  0.00  0.00    +0.170 A 
ATOM     12  C   LIG    1        7.043   4.550  -3.230  0.00  0.00    +0.360 C 
ATOM     13  C   LIG    1        6.534   6.468  -0.203  0.00  0.00    +0.050 A 
BRANCH  13  14
ATOM     14  N   LIG    1        5.788   6.978   0.885  0.00  0.00    -0.870 N 
ATOM     15  H   LIG    1        6.215   7.554   1.538  0.00  0.00    +0.400 HD
ATOM     16  H   LIG    1        4.850   6.750   0.979  0.00  0.00    +0.390 HD
ENDBRANCH  13  14
ENDBRANCH   1  11
BRANCH   4  17
ATOM     17  C   LIG    1        0.740   4.373  -0.638  0.00  0.00    +0.370 A 
ATOM     18  C   LIG    1       -0.316   5.268  -0.802  0.00  0.00    +0.010 A 
ATOM     19  C   LIG    1       -1.605   4.780  -0.918  0.00  0.00    +0.200 A 
ATOM     20  C   LIG    1       -1.803   3.408  -0.871  0.00  0.00    -0.090 A 
ATOM     21  C   LIG    1       -0.705   2.569  -0.700  0.00  0.00    +0.320 A 
ATOM     22  N   LIG    1        0.521   3.071  -0.592  0.00  0.00    -0.480 NA
BRANCH  20  23
ATOM     23  N   LIG    1       -3.165   2.843  -0.996  0.00  0.00    +0.030 N 
ATOM     24  O   LIG    1       -3.331   1.637  -0.950  0.00  0.00    -0.150 OA
ATOM     25  O   LIG    1       -4.120   3.584  -1.146  0.00  0.00    -0.130 OA
ENDBRANCH  20  23
BRANCH  21  26
ATOM     26  C   LIG    1       -0.897   1.151  -0.645  0.00  0.00    +0.230 C 
ATOM     27  N   LIG    1       -1.051   0.026  -0.601  0.00  0.00    -0.320 NA
ENDBRANCH  21  26
ENDBRANCH   4  17
TORSDOF 5
