REMARK  Name = ZINCrD00000lahnj.0
REMARK                            x       y       z     vdW  Elec       q    Type
REMARK                         _______ _______ _______ _____ _____    ______ ____
ROOT
ATOM      1  N   LIG    1       -2.430   1.666   0.027  0.00  0.00    -0.650 N 
ATOM      2  H   LIG    1       -2.489   0.770   0.393  0.00  0.00    +0.420 HD
ATOM      3  C   LIG    1       -1.296   2.073  -0.579  0.00  0.00    +0.610 C 
ATOM      4  O   LIG    1       -1.256   3.157  -1.131  0.00  0.00    -0.520 OA
ENDROOT
BRANCH   3   5
ATOM      5  C   LIG    1       -0.112   1.209  -0.572  0.00  0.00    -0.040 A 
ATOM      6  N   LIG    1        0.007   0.004  -0.017  0.00  0.00    -0.180 NA
ATOM      7  N   LIG    1        1.179  -0.483  -0.200  0.00  0.00    -0.320 NA
ATOM      8  C   LIG    1        1.965   0.334  -0.889  0.00  0.00    +0.220 A 
ATOM      9  N   LIG    1        3.259   0.272  -1.327  0.00  0.00    -0.470 N 
ATOM     10  H   LIG    1        3.795  -0.512  -1.132  0.00  0.00    +0.440 HD
ATOM     11  C   LIG    1        3.796   1.285  -2.023  0.00  0.00    +0.420 A 
ATOM     12  C   LIG    1        3.075   2.417  -2.324  0.00  0.00    -0.210 A 
ATOM     13  C   LIG    1        1.754   2.533  -1.904  0.00  0.00    +0.290 A 
ATOM     14 BR   LIG    1        3.879   3.817  -3.309  0.00  0.00    +0.010 Br
ATOM     15  C   LIG    1        1.191   1.485  -1.180  0.00  0.00    -0.170 A 
ENDBRANCH   3   5
BRANCH   1  20
ATOM     16  C   LIG    1       -5.883   2.891   0.331  0.00  0.00    -0.060 A 
ATOM     17  C   LIG    1       -5.676   4.258   0.326  0.00  0.00    -0.010 A 
ATOM     18  C   LIG    1       -4.394   4.767   0.222  0.00  0.00    +0.030 A 
ATOM     19  C   LIG    1       -3.316   3.910   0.128  0.00  0.00    +0.010 A 
ATOM     20  C   LIG    1       -3.520   2.537   0.127  0.00  0.00    +0.150 A 
ATOM     21  C   LIG    1       -4.808   2.029   0.232  0.00  0.00    +0.020 A 
BRANCH  16  23
ATOM     22  C   LIG    1       -8.269   3.327  -0.182  0.00  0.00    +0.000 C 
ATOM     23  C   LIG    1       -7.281   2.341   0.445  0.00  0.00    +0.220 C 
BRANCH  23  24
ATOM     24  N   LIG    1       -7.360   1.054  -0.259  0.00  0.00    -0.530 NA
ATOM     25  C   LIG    1       -7.177   1.233  -1.706  0.00  0.00    +0.150 C 
ATOM     26  C   LIG    1       -7.207  -0.136  -2.392  0.00  0.00    +0.220 C 
ATOM     27  O   LIG    1       -8.437  -0.794  -2.079  0.00  0.00    -0.390 OA
ATOM     28  C   LIG    1       -8.647  -0.985  -0.677  0.00  0.00    +0.220 C 
ATOM     29  C   LIG    1       -8.632   0.375   0.026  0.00  0.00    +0.160 C 
ENDBRANCH  23  24
ENDBRANCH  16  23
ENDBRANCH   1  20
TORSDOF 4
