REMARK  Name = ZINCkj00000xCtcK.1
REMARK                            x       y       z     vdW  Elec       q    Type
REMARK                         _______ _______ _______ _____ _____    ______ ____
ROOT
ATOM      1  O   LIG    1       -0.204   3.313  -3.227  0.00  0.00    -0.470 OA
ATOM      2  C   LIG    1       -0.507   3.835  -2.173  0.00  0.00    +0.580 C 
ATOM      3  N   LIG    1       -0.639   3.083  -1.062  0.00  0.00    -0.620 N 
ATOM      4  C   LIG    1       -0.606   1.614  -1.134  0.00  0.00    +0.330 C 
ATOM      5  C   LIG    1        0.398   1.099  -0.098  0.00  0.00    +0.260 C 
ATOM      6  N   LIG    1        0.052   1.633   1.225  0.00  0.00    -0.380 N 
ATOM      7  C   LIG    1        0.195   3.094   1.228  0.00  0.00    +0.230 C 
ATOM      8  H   LIG    1       -0.902   1.389   1.446  0.00  0.00    +0.430 HD
ATOM      9  C   LIG    1       -0.819   3.708   0.258  0.00  0.00    +0.340 C 
ENDROOT
BRANCH   2  10
ATOM     10  C   LIG    1       -0.733   5.300  -2.108  0.00  0.00    +0.130 A 
ATOM     11  N   LIG    1       -1.210   5.863  -1.000  0.00  0.00    -0.490 NA
ATOM     12  C   LIG    1       -1.406   7.162  -0.937  0.00  0.00    +0.520 A 
ATOM     13  N   LIG    1       -1.153   7.957  -1.958  0.00  0.00    -0.480 NA
ATOM     14  C   LIG    1       -0.683   7.477  -3.096  0.00  0.00    +0.370 A 
ATOM     15  C   LIG    1       -0.454   6.111  -3.210  0.00  0.00    -0.100 A 
ATOM     16 CL   LIG    1        0.164   5.431  -4.683  0.00  0.00    +0.020 Cl
ENDBRANCH   2  10
BRANCH   6  17
ATOM     17  C   LIG    1        0.947   1.053   2.235  0.00  0.00    +0.180 C 
ATOM     18  C   LIG    1        2.368   1.534   1.969  0.00  0.00    +0.060 C 
ATOM     19  C   LIG    1        2.966   2.304   3.165  0.00  0.00    +0.140 C 
ATOM     20  S   LIG    1        2.003   1.646   4.587  0.00  0.00    -0.200 S 
ATOM     21  C   LIG    1        0.442   1.451   3.637  0.00  0.00    +0.130 C 
ENDBRANCH   6  17
TORSDOF 2
