REMARK  Name = ZINCpk00000kW6A7.0
REMARK                            x       y       z     vdW  Elec       q    Type
REMARK                         _______ _______ _______ _____ _____    ______ ____
ROOT
ATOM      1  C   LIG    1        3.194   3.607   3.377  0.00  0.00    +0.610 C 
ATOM      2  N   LIG    1        2.183   3.016   2.710  0.00  0.00    -0.600 N 
ATOM      3  C   LIG    1        2.015   1.557   2.745  0.00  0.00    +0.300 C 
ATOM      4  C   LIG    1        1.989   1.031   1.305  0.00  0.00    +0.270 C 
ATOM      5  N   LIG    1        1.035   1.835   0.529  0.00  0.00    -0.610 N 
ATOM      6  C   LIG    1        1.206   3.295   0.489  0.00  0.00    +0.300 C 
ATOM      7  C   LIG    1        0.024   1.245  -0.139  0.00  0.00    +0.600 C 
ATOM      8  O   LIG    1       -0.851   1.924  -0.642  0.00  0.00    -0.500 OA
ATOM      9  C   LIG    1        1.229   3.821   1.934  0.00  0.00    +0.290 C 
ATOM     10  O   LIG    1        3.273   4.820   3.413  0.00  0.00    -0.500 OA
ENDROOT
BRANCH   7  11
ATOM     11  C   LIG    1       -0.025  -0.222  -0.253  0.00  0.00    -0.040 A 
ATOM     12  C   LIG    1       -1.159  -1.009  -0.364  0.00  0.00    +0.060 A 
ATOM     13  C   LIG    1       -0.690  -2.322  -0.444  0.00  0.00    -0.050 A 
ATOM     14  N   LIG    1        0.617  -2.287  -0.383  0.00  0.00    -0.220 NA
ATOM     15  N   LIG    1        1.038  -1.078  -0.277  0.00  0.00    -0.370 N 
ATOM     16  H   LIG    1        1.970  -0.814  -0.220  0.00  0.00    +0.450 HD
BRANCH  13  17
ATOM     17  C   LIG    1       -1.539  -3.560  -0.577  0.00  0.00    +0.490 C 
ATOM     18  F   LIG    1       -2.773  -3.349   0.045  0.00  0.00    -0.190 F 
ATOM     19  F   LIG    1       -0.888  -4.639   0.031  0.00  0.00    -0.190 F 
ENDBRANCH  13  17
ENDBRANCH   7  11
BRANCH   1  23
ATOM     20  C   LIG    1        5.248   1.034   4.882  0.00  0.00    +0.070 A 
ATOM     21  C   LIG    1        6.009   2.140   5.187  0.00  0.00    +0.060 A 
ATOM     22  C   LIG    1        5.338   3.251   4.662  0.00  0.00    +0.070 A 
ATOM     23  C   LIG    1        4.203   2.784   4.062  0.00  0.00    -0.040 A 
ATOM     24  O   LIG    1        4.159   1.446   4.207  0.00  0.00    -0.140 OA
BRANCH  20  26
ATOM     25  N   LIG    1        5.804  -1.395   5.502  0.00  0.00    -0.360 NA
ATOM     26  C   LIG    1        5.558  -0.320   5.228  0.00  0.00    +0.280 C 
ENDBRANCH  20  26
ENDBRANCH   1  23
TORSDOF 4
