REMARK  Name = ZINCpk00000kW6A7.1
REMARK                            x       y       z     vdW  Elec       q    Type
REMARK                         _______ _______ _______ _____ _____    ______ ____
ROOT
ATOM      1  C   LIG    1        6.170   5.058   1.548  0.00  0.00    +0.600 C 
ATOM      2  N   LIG    1        5.212   4.120   1.410  0.00  0.00    -0.600 N 
ATOM      3  C   LIG    1        5.565   2.696   1.321  0.00  0.00    +0.290 C 
ATOM      4  C   LIG    1        4.960   2.120   0.036  0.00  0.00    +0.290 C 
ATOM      5  N   LIG    1        3.542   2.503  -0.029  0.00  0.00    -0.600 N 
ATOM      6  C   LIG    1        3.189   3.928   0.054  0.00  0.00    +0.290 C 
ATOM      7  C   LIG    1        2.584   1.566  -0.167  0.00  0.00    +0.610 C 
ATOM      8  O   LIG    1        1.425   1.899  -0.319  0.00  0.00    -0.520 OA
ATOM      9  C   LIG    1        3.794   4.503   1.345  0.00  0.00    +0.280 C 
ATOM     10  O   LIG    1        7.343   4.743   1.482  0.00  0.00    -0.510 OA
ENDROOT
BRANCH   7  11
ATOM     11  C   LIG    1        2.942   0.133  -0.134  0.00  0.00    -0.000 A 
ATOM     12  N   LIG    1        4.160  -0.371  -0.106  0.00  0.00    -0.240 NA
ATOM     13  N   LIG    1        4.105  -1.654  -0.082  0.00  0.00    -0.360 N 
ATOM     14  H   LIG    1        4.877  -2.241  -0.060  0.00  0.00    +0.450 HD
ATOM     15  C   LIG    1        2.820  -2.067  -0.088  0.00  0.00    -0.060 A 
ATOM     16  C   LIG    1        2.043  -0.960  -0.127  0.00  0.00    +0.050 A 
BRANCH  15  17
ATOM     17  C   LIG    1        2.340  -3.495  -0.060  0.00  0.00    +0.490 C 
ATOM     18  F   LIG    1        1.099  -3.558   0.582  0.00  0.00    -0.180 F 
ATOM     19  F   LIG    1        3.264  -4.285   0.632  0.00  0.00    -0.200 F 
ENDBRANCH  15  17
ENDBRANCH   7  11
BRANCH   1  23
ATOM     20  C   LIG    1        4.580   8.270   2.049  0.00  0.00    +0.060 A 
ATOM     21  C   LIG    1        5.899   8.649   2.165  0.00  0.00    +0.040 A 
ATOM     22  C   LIG    1        6.668   7.492   1.992  0.00  0.00    +0.060 A 
ATOM     23  C   LIG    1        5.798   6.461   1.779  0.00  0.00    -0.040 A 
ATOM     24  O   LIG    1        4.542   6.946   1.811  0.00  0.00    -0.140 OA
BRANCH  20  26
ATOM     25  N   LIG    1        2.545   9.824   2.243  0.00  0.00    -0.360 NA
ATOM     26  C   LIG    1        3.445   9.136   2.157  0.00  0.00    +0.280 C 
ENDBRANCH  20  26
ENDBRANCH   1  23
TORSDOF 4
