REMARK  Name = ZINCtV000002z14N.0
REMARK                            x       y       z     vdW  Elec       q    Type
REMARK                         _______ _______ _______ _____ _____    ______ ____
ROOT
ATOM      1  N   LIG    1       -0.018   1.464   0.010  0.00  0.00    -0.510 NA
ATOM      2  C   LIG    1        1.344   2.014   0.000  0.00  0.00    +0.160 C 
ATOM      3  C   LIG    1        2.062   1.579  -1.280  0.00  0.00    +0.030 C 
ATOM      4  C   LIG    1        2.108   0.049  -1.338  0.00  0.00    +0.020 C 
ATOM      5  C   LIG    1        0.680  -0.499  -1.278  0.00  0.00    +0.060 C 
ATOM      6  C   LIG    1        0.002  -0.004   0.002  0.00  0.00    +0.240 C 
ENDROOT
BRANCH   6   7
ATOM      7  C   LIG    1       -1.411  -0.526   0.056  0.00  0.00    +0.080 A 
ATOM      8  N   LIG    1       -2.375  -0.066  -0.647  0.00  0.00    -0.430 NA
ATOM      9  C   LIG    1       -3.588  -0.632  -0.498  0.00  0.00    +0.080 A 
ATOM     10  C   LIG    1       -4.806  -0.331  -1.139  0.00  0.00    +0.080 A 
ATOM     11  C   LIG    1       -5.936  -1.030  -0.837  0.00  0.00    +0.030 A 
ATOM     12  C   LIG    1       -5.910  -2.049   0.105  0.00  0.00    +0.040 A 
ATOM     13  C   LIG    1       -4.733  -2.365   0.747  0.00  0.00    +0.060 A 
ATOM     14  C   LIG    1       -3.568  -1.661   0.450  0.00  0.00    -0.180 A 
ATOM     15  S   LIG    1       -1.926  -1.799   1.069  0.00  0.00    +0.100 S 
ENDBRANCH   6   7
BRANCH   1  16
ATOM     16  C   LIG    1       -0.783   1.974   1.156  0.00  0.00    +0.340 C 
BRANCH  16  20
ATOM     17  C   LIG    1        0.194   5.403   1.809  0.00  0.00    +0.240 A 
ATOM     18  N   LIG    1       -0.850   5.546   1.022  0.00  0.00    -0.270 NA
ATOM     19  N   LIG    1       -1.306   4.385   0.707  0.00  0.00    -0.250 NA
ATOM     20  C   LIG    1       -0.580   3.463   1.273  0.00  0.00    +0.170 A 
ATOM     21  O   LIG    1        0.381   4.079   1.986  0.00  0.00    -0.220 OA
BRANCH  17  25
ATOM     22  C   LIG    1        2.620   7.999   3.571  0.00  0.00    -0.150 A 
ATOM     23  C   LIG    1        1.687   8.634   2.855  0.00  0.00    -0.110 A 
ATOM     24  C   LIG    1        0.791   7.816   2.202  0.00  0.00    +0.110 A 
ATOM     25  C   LIG    1        1.003   6.484   2.392  0.00  0.00    -0.160 A 
ATOM     26  C   LIG    1        1.618  10.137   2.769  0.00  0.00    +0.110 C 
ATOM     27  S   LIG    1        2.391   6.260   3.448  0.00  0.00    +0.170 S 
BRANCH  22  29
ATOM     28  C   LIG    1        3.206   8.929   5.793  0.00  0.00    +0.040 C 
ATOM     29  C   LIG    1        3.705   8.675   4.370  0.00  0.00    +0.110 C 
ENDBRANCH  22  29
ENDBRANCH  17  25
ENDBRANCH  16  20
ENDBRANCH   1  16
TORSDOF 5
