REMARK  Name = ZINCtV000002yfWG.0
REMARK                            x       y       z     vdW  Elec       q    Type
REMARK                         _______ _______ _______ _____ _____    ______ ____
ROOT
ATOM      1  C   LIG    1       -5.314   2.769  -1.065  0.00  0.00    +0.300 C 
ENDROOT
BRANCH   1   2
ATOM      2  C   LIG    1       -4.080   2.489  -0.248  0.00  0.00    +0.020 A 
ATOM      3  C   LIG    1       -3.604   3.262   0.748  0.00  0.00    -0.040 A 
ATOM      4  C   LIG    1       -2.442   2.635   1.238  0.00  0.00    +0.010 A 
ATOM      5  C   LIG    1       -2.270   1.502   0.507  0.00  0.00    -0.000 A 
ATOM      6  O   LIG    1       -3.268   1.429  -0.394  0.00  0.00    -0.150 OA
BRANCH   5   7
ATOM      7  C   LIG    1       -1.174   0.523   0.669  0.00  0.00    +0.050 A 
ATOM      8  C   LIG    1       -1.461  -0.838   0.779  0.00  0.00    +0.080 A 
ATOM      9  C   LIG    1       -0.433  -1.747   0.924  0.00  0.00    +0.120 A 
ATOM     10  C   LIG    1        0.880  -1.312   0.960  0.00  0.00    -0.030 A 
ATOM     11  C   LIG    1        1.172   0.035   0.851  0.00  0.00    +0.130 A 
ATOM     12  C   LIG    1        0.153   0.956   0.706  0.00  0.00    -0.020 A 
ATOM     13 CL   LIG    1        0.522   2.647   0.569  0.00  0.00    -0.020 Cl
BRANCH  10  14
ATOM     14  N   LIG    1        1.977  -2.294   1.116  0.00  0.00    +0.020 N 
ATOM     15  O   LIG    1        3.134  -1.914   1.148  0.00  0.00    -0.150 OA
ATOM     16  O   LIG    1        1.723  -3.481   1.212  0.00  0.00    -0.150 OA
ENDBRANCH  10  14
ENDBRANCH   5   7
ENDBRANCH   1   2
BRANCH   1  17
ATOM     17  N   LIG    1       -4.950   3.566  -2.245  0.00  0.00    -0.680 NA
ATOM     18  H   LIG    1       -4.534   4.444  -1.973  0.00  0.00    +0.360 HD
BRANCH  17  19
ATOM     19  C   LIG    1       -6.114   3.780  -3.115  0.00  0.00    +0.250 C 
BRANCH  19  20
ATOM     20  C   LIG    1       -6.253   2.617  -4.063  0.00  0.00    +0.050 A 
ATOM     21  N   LIG    1       -7.362   2.015  -4.335  0.00  0.00    -0.450 NA
ATOM     22  C   LIG    1       -7.307   1.014  -5.190  0.00  0.00    -0.020 A 
ATOM     23  C   LIG    1       -6.085   0.756  -5.664  0.00  0.00    -0.030 A 
ATOM     24  S   LIG    1       -4.967   1.909  -4.939  0.00  0.00    +0.240 S 
BRANCH  22  25
ATOM     25  C   LIG    1       -8.524   0.223  -5.598  0.00  0.00    +0.550 C 
ATOM     26  F   LIG    1       -9.444   0.207  -4.545  0.00  0.00    -0.160 F 
ATOM     27  F   LIG    1       -8.146  -1.088  -5.908  0.00  0.00    -0.170 F 
ATOM     28  F   LIG    1       -9.110   0.817  -6.721  0.00  0.00    -0.170 F 
ENDBRANCH  22  25
ENDBRANCH  19  20
BRANCH  19  30
ATOM     29  C   LIG    1       -5.910   6.266  -2.961  0.00  0.00    +0.030 C 
ATOM     30  C   LIG    1       -5.921   5.070  -3.916  0.00  0.00    +0.030 C 
ENDBRANCH  19  30
ENDBRANCH  17  19
ENDBRANCH   1  17
TORSDOF 8
