REMARK  Name = ZINCqH0000032v38.0
REMARK                            x       y       z     vdW  Elec       q    Type
REMARK                         _______ _______ _______ _____ _____    ______ ____
ROOT
ATOM      1  C   LIG    1       -2.322  -0.003   0.128  0.00  0.00    +0.180 A 
ATOM      2  C   LIG    1       -2.302   1.383   0.133  0.00  0.00    -0.070 A 
ATOM      3  C   LIG    1       -3.481   2.092   0.254  0.00  0.00    +0.080 A 
ATOM      4  C   LIG    1       -4.690   1.426   0.370  0.00  0.00    -0.030 A 
ATOM      5  C   LIG    1       -4.729   0.048   0.366  0.00  0.00    +0.080 A 
ATOM      6  C   LIG    1       -3.544  -0.681   0.239  0.00  0.00    -0.170 A 
ENDROOT
BRANCH   6   7
ATOM      7  C   LIG    1       -3.579  -2.156   0.229  0.00  0.00    +0.560 C 
ATOM      8  N   LIG    1       -4.756  -2.803   0.336  0.00  0.00    -0.730 N 
ATOM      9  H   LIG    1       -5.580  -2.300   0.421  0.00  0.00    +0.400 HD
ATOM     10  O   LIG    1       -2.545  -2.787   0.122  0.00  0.00    -0.510 OA
BRANCH   8  11
ATOM     11  C   LIG    1       -4.790  -4.268   0.326  0.00  0.00    +0.270 C 
BRANCH  11  12
ATOM     12  C   LIG    1       -6.237  -4.745   0.461  0.00  0.00    +0.050 C 
BRANCH  12  13
ATOM     13  C   LIG    1       -6.273  -6.275   0.450  0.00  0.00    -0.330 C 
BRANCH  13  14
ATOM     14  S   LIG    1       -7.989  -6.841   0.610  0.00  0.00    +2.420 S 
ATOM     15  O   LIG    1       -8.708  -6.440  -0.548  0.00  0.00    -0.940 OA
ATOM     16  O   LIG    1       -8.472  -6.463   1.892  0.00  0.00    -0.940 OA
ATOM     17  C   LIG    1       -7.793  -8.644   0.574  0.00  0.00    -0.270 C 
ENDBRANCH  13  14
ENDBRANCH  12  13
ENDBRANCH  11  12
ENDBRANCH   8  11
ENDBRANCH   6   7
BRANCH   1  18
ATOM     18  O   LIG    1       -1.165  -0.701   0.009  0.00  0.00    -0.220 OA
BRANCH  18  24
ATOM     19  C   LIG    1        0.571   0.376   1.230  0.00  0.00    -0.080 A 
ATOM     20  C   LIG    1        1.758   1.082   1.241  0.00  0.00    +0.030 A 
ATOM     21  C   LIG    1        2.381   1.408   0.050  0.00  0.00    +0.020 A 
ATOM     22  C   LIG    1        1.818   1.029  -1.154  0.00  0.00    +0.020 A 
ATOM     23  C   LIG    1        0.630   0.323  -1.171  0.00  0.00    +0.010 A 
ATOM     24  C   LIG    1        0.003  -0.006   0.023  0.00  0.00    +0.070 A 
BRANCH  19  26
ATOM     25  C   LIG    1        0.828  -0.845   3.373  0.00  0.00    +0.040 C 
ATOM     26  C   LIG    1       -0.108   0.021   2.528  0.00  0.00    +0.020 C 
ATOM     27  C   LIG    1       -0.446   1.302   3.293  0.00  0.00    +0.040 C 
ENDBRANCH  19  26
ENDBRANCH  18  24
ENDBRANCH   1  18
TORSDOF 8
