REMARK  Name = ZINCrD00000759GA.0
REMARK                            x       y       z     vdW  Elec       q    Type
REMARK                         _______ _______ _______ _____ _____    ______ ____
ROOT
ATOM      1  C   LIG    1       -2.225   5.845  -1.441  0.00  0.00    +0.270 A 
ATOM      2  N   LIG    1       -2.620   4.627  -1.730  0.00  0.00    -0.260 NA
ATOM      3  N   LIG    1       -3.680   4.686  -2.458  0.00  0.00    -0.240 NA
ATOM      4  C   LIG    1       -4.001   5.933  -2.660  0.00  0.00    +0.160 A 
ATOM      5  O   LIG    1       -3.096   6.696  -2.020  0.00  0.00    -0.210 OA
ENDROOT
BRANCH   1   8
ATOM      6  C   LIG    1       -1.214   8.780  -0.703  0.00  0.00    +0.210 C 
ATOM      7  C   LIG    1       -0.598   7.465  -0.299  0.00  0.00    +0.040 A 
ATOM      8  C   LIG    1       -1.049   6.215  -0.627  0.00  0.00    -0.160 A 
ATOM      9  C   LIG    1       -0.070   5.327   0.031  0.00  0.00    +0.120 A 
ATOM     10  N   LIG    1        0.773   6.131   0.630  0.00  0.00    -0.340 NA
ATOM     11  O   LIG    1        0.497   7.292   0.450  0.00  0.00    +0.110 OA
BRANCH   9  12
ATOM     12  C   LIG    1       -0.050   3.844   0.023  0.00  0.00    -0.050 A 
ATOM     13  C   LIG    1        1.165   3.161   0.008  0.00  0.00    +0.050 A 
ATOM     14  C   LIG    1        1.177   1.781   0.000  0.00  0.00    +0.000 A 
ATOM     15  C   LIG    1       -0.013   1.076   0.008  0.00  0.00    +0.030 A 
ATOM     16  C   LIG    1       -1.221   1.748   0.017  0.00  0.00    +0.010 A 
ATOM     17  C   LIG    1       -1.246   3.128   0.030  0.00  0.00    +0.070 A 
ENDBRANCH   9  12
ENDBRANCH   1   8
BRANCH   4  18
ATOM     18  C   LIG    1       -5.177   6.430  -3.461  0.00  0.00    +0.410 C 
BRANCH  18  19
ATOM     19  O   LIG    1       -6.330   6.572  -2.590  0.00  0.00    -0.360 OA
BRANCH  19  20
ATOM     20  C   LIG    1       -7.474   7.011  -3.154  0.00  0.00    +0.550 C 
ATOM     21  O   LIG    1       -7.505   7.268  -4.343  0.00  0.00    -0.490 OA
BRANCH  20  22
ATOM     22  C   LIG    1       -8.677   7.179  -2.336  0.00  0.00    -0.060 A 
ATOM     23  C   LIG    1       -9.909   7.617  -2.777  0.00  0.00    +0.060 A 
ATOM     24  C   LIG    1      -10.760   7.625  -1.668  0.00  0.00    -0.060 A 
ATOM     25  C   LIG    1      -10.049   7.202  -0.596  0.00  0.00    +0.210 A 
ATOM     26  N   LIG    1       -8.788   6.923  -0.988  0.00  0.00    -0.420 N 
ATOM     27  C   LIG    1       -7.713   6.433  -0.121  0.00  0.00    +0.330 C 
ENDBRANCH  20  22
ENDBRANCH  19  20
ENDBRANCH  18  19
ENDBRANCH   4  18
TORSDOF 6
