REMARK  Name = ZINCrD00000hQ6HF.0
REMARK                            x       y       z     vdW  Elec       q    Type
REMARK                         _______ _______ _______ _____ _____    ______ ____
ROOT
ATOM      1  C   LIG    1        3.235   1.547   6.016  0.00  0.00    +0.100 A 
ATOM      2  C   LIG    1        2.075   2.268   5.768  0.00  0.00    +0.030 A 
ATOM      3  C   LIG    1        1.466   2.192   4.531  0.00  0.00    +0.010 A 
ATOM      4  C   LIG    1        2.013   1.395   3.536  0.00  0.00    +0.130 A 
ATOM      5  C   LIG    1        3.170   0.670   3.784  0.00  0.00    -0.060 A 
ATOM      6  C   LIG    1        3.783   0.749   5.019  0.00  0.00    +0.060 A 
ENDROOT
BRANCH   1   9
ATOM      7  O   LIG    1        5.875   1.496   6.360  0.00  0.00    -0.500 OA
ATOM      8  C   LIG    1        5.195   1.540   7.367  0.00  0.00    +0.560 C 
ATOM      9  N   LIG    1        3.853   1.623   7.270  0.00  0.00    -0.660 N 
ATOM     10  H   LIG    1        3.315   1.736   8.070  0.00  0.00    +0.410 HD
BRANCH   8  11
ATOM     11  C   LIG    1        5.839   1.503   8.697  0.00  0.00    -0.130 A 
ATOM     12  C   LIG    1        5.061   1.559   9.854  0.00  0.00    +0.110 A 
ATOM     13  C   LIG    1        5.669   1.520  11.092  0.00  0.00    +0.040 A 
ATOM     14  C   LIG    1        7.046   1.435  11.188  0.00  0.00    +0.130 A 
ATOM     15  C   LIG    1        7.824   1.383  10.044  0.00  0.00    -0.050 A 
ATOM     16  C   LIG    1        7.229   1.417   8.800  0.00  0.00    +0.170 A 
BRANCH  15  17
ATOM     17  N   LIG    1        9.297   1.292  10.156  0.00  0.00    +0.020 N 
ATOM     18  O   LIG    1        9.823   1.262  11.254  0.00  0.00    -0.150 OA
ATOM     19  O   LIG    1        9.982   1.247   9.150  0.00  0.00    -0.150 OA
ENDBRANCH  15  17
ENDBRANCH   8  11
ENDBRANCH   1   9
BRANCH   4  20
ATOM     20  O   LIG    1        1.413   1.320   2.318  0.00  0.00    -0.310 OA
BRANCH  20  21
ATOM     21  C   LIG    1        2.031   0.481   1.341  0.00  0.00    +0.250 C 
BRANCH  21  22
ATOM     22  C   LIG    1        1.219   0.524   0.045  0.00  0.00    +0.070 C 
ATOM     23  C   LIG    1        0.015   1.466  -0.007  0.00  0.00    +0.180 C 
ATOM     24  N   LIG    1       -0.157   0.010   0.085  0.00  0.00    -0.440 NA
BRANCH  24  25
ATOM     25  C   LIG    1       -0.545  -0.558  -1.213  0.00  0.00    +0.180 C 
BRANCH  25  26
ATOM     26  C   LIG    1       -1.836  -1.363  -1.051  0.00  0.00    -0.030 C 
ATOM     27  C   LIG    1       -1.767  -2.868  -1.321  0.00  0.00    +0.000 C 
ATOM     28  C   LIG    1       -2.470  -1.943  -2.317  0.00  0.00    +0.010 C 
ENDBRANCH  25  26
ENDBRANCH  24  25
ENDBRANCH  21  22
ENDBRANCH  20  21
ENDBRANCH   4  20
TORSDOF 8
