REMARK  Name = ZINCpe000000TYoZ.0
REMARK                            x       y       z     vdW  Elec       q    Type
REMARK                         _______ _______ _______ _____ _____    ______ ____
ROOT
ATOM      1  C   LIG    1       -0.288  -4.328  -2.420  0.00  0.00    -0.110 A 
ATOM      2  C   LIG    1       -0.140  -3.539  -3.562  0.00  0.00    +0.060 A 
ATOM      3  C   LIG    1        0.446  -4.067  -4.694  0.00  0.00    +0.050 A 
ATOM      4  C   LIG    1        0.878  -5.380  -4.706  0.00  0.00    +0.020 A 
ATOM      5  C   LIG    1        0.730  -6.175  -3.576  0.00  0.00    +0.150 A 
ATOM      6  C   LIG    1        0.148  -5.653  -2.432  0.00  0.00    +0.100 A 
ENDROOT
BRANCH   5   7
ATOM      7  N   LIG    1        1.170  -7.506  -3.593  0.00  0.00    -0.340 N 
ATOM      8  N   LIG    1        1.730  -8.196  -2.512  0.00  0.00    -0.290 NA
ATOM      9  C   LIG    1        2.023  -9.411  -2.884  0.00  0.00    +0.340 A 
ATOM     10  C   LIG    1        1.659  -9.558  -4.243  0.00  0.00    -0.260 A 
ATOM     11  C   LIG    1        1.121  -8.342  -4.655  0.00  0.00    +0.430 A 
BRANCH  11  12
ATOM     12  N   LIG    1        0.631  -8.044  -5.912  0.00  0.00    -0.830 N 
ATOM     13  H   LIG    1        0.641  -8.719  -6.609  0.00  0.00    +0.420 HD
ATOM     14  H   LIG    1        0.278  -7.160  -6.098  0.00  0.00    +0.410 HD
ENDBRANCH  11  12
BRANCH  10  15
ATOM     15  C   LIG    1        1.811 -10.736  -5.043  0.00  0.00    +0.290 C 
ATOM     16  N   LIG    1        1.931 -11.671  -5.677  0.00  0.00    -0.440 NA
ENDBRANCH  10  15
ENDBRANCH   5   7
BRANCH   1  19
ATOM     17  N   LIG    1       -1.331  -2.482  -1.195  0.00  0.00    -0.730 N 
ATOM     18  H   LIG    1       -1.225  -1.931  -1.986  0.00  0.00    +0.410 HD
ATOM     19  C   LIG    1       -0.911  -3.763  -1.204  0.00  0.00    +0.570 C 
ATOM     20  O   LIG    1       -1.043  -4.453  -0.212  0.00  0.00    -0.520 OA
BRANCH  17  21
ATOM     21  C   LIG    1       -1.948  -1.922   0.010  0.00  0.00    +0.270 C 
ATOM     22  C   LIG    1       -3.440  -2.259   0.023  0.00  0.00    +0.040 C 
BRANCH  21  23
ATOM     23  C   LIG    1       -1.768  -0.403   0.017  0.00  0.00    -0.340 C 
BRANCH  23  24
ATOM     24  S   LIG    1        0.002  -0.004   0.002  0.00  0.00    +2.410 S 
ATOM     25  O   LIG    1        0.578  -0.456   1.220  0.00  0.00    -0.930 OA
ATOM     26  O   LIG    1        0.555  -0.443  -1.232  0.00  0.00    -0.930 OA
BRANCH  24  28
ATOM     27  C   LIG    1        1.413   2.339   0.001  0.00  0.00    +0.070 C 
ATOM     28  C   LIG    1       -0.022   1.810   0.012  0.00  0.00    -0.350 C 
ENDBRANCH  24  28
ENDBRANCH  23  24
ENDBRANCH  21  23
ENDBRANCH  17  21
ENDBRANCH   1  19
TORSDOF 8
