REMARK  Name = ZINCvU00000007dd.0
REMARK                            x       y       z     vdW  Elec       q    Type
REMARK                         _______ _______ _______ _____ _____    ______ ____
ROOT
ATOM      1  C   LIG    1        1.250  -2.157  -0.022  0.00  0.00    +0.510 C 
ATOM      2  O   LIG    1        2.314  -2.745  -0.035  0.00  0.00    -0.470 OA
ENDROOT
BRANCH   1   3
ATOM      3  C   LIG    1        1.223  -0.685  -0.013  0.00  0.00    -0.120 A 
ATOM      4  C   LIG    1        0.002  -0.004   0.002  0.00  0.00    +0.100 A 
ATOM      5  C   LIG    1       -0.017   1.373   0.010  0.00  0.00    +0.000 A 
ATOM      6  C   LIG    1        1.170   2.091   0.002  0.00  0.00    +0.070 A 
ATOM      7  C   LIG    1        2.383   1.435  -0.013  0.00  0.00    -0.020 A 
ATOM      8  C   LIG    1        2.424   0.045  -0.021  0.00  0.00    -0.060 A 
BRANCH   8   9
ATOM      9  S   LIG    1        3.972  -0.796  -0.040  0.00  0.00    +0.090 S 
BRANCH   9  10
ATOM     10  C   LIG    1        5.099   0.620  -0.043  0.00  0.00    +0.040 C 
BRANCH  10  11
ATOM     11  C   LIG    1        6.523   0.128  -0.059  0.00  0.00    +0.550 C 
ATOM     12  N   LIG    1        7.541   1.012  -0.064  0.00  0.00    -0.620 N 
ATOM     13  C   LIG    1        7.405   2.476  -0.062  0.00  0.00    +0.240 C 
ATOM     14  C   LIG    1        8.830   3.068  -0.095  0.00  0.00    +0.040 C 
ATOM     15  C   LIG    1        9.672   1.910  -0.693  0.00  0.00    +0.040 C 
ATOM     16  C   LIG    1        8.975   0.670  -0.079  0.00  0.00    +0.250 C 
ATOM     17  O   LIG    1        6.754  -1.062  -0.067  0.00  0.00    -0.520 OA
ENDBRANCH  10  11
ENDBRANCH   9  10
ENDBRANCH   8   9
ENDBRANCH   1   3
BRANCH   1  18
ATOM     18  O   LIG    1        0.096  -2.853  -0.015  0.00  0.00    -0.350 OA
BRANCH  18  19
ATOM     19  C   LIG    1        0.199  -4.301  -0.024  0.00  0.00    +0.350 C 
BRANCH  19  22
ATOM     20  C   LIG    1       -2.612  -6.615  -0.010  0.00  0.00    +0.130 A 
ATOM     21  N   LIG    1       -1.377  -6.201  -0.020  0.00  0.00    -0.460 NA
ATOM     22  C   LIG    1       -1.183  -4.903  -0.015  0.00  0.00    +0.060 A 
ATOM     23  C   LIG    1       -2.286  -4.148   0.005  0.00  0.00    -0.040 A 
ATOM     24  S   LIG    1       -3.686  -5.218   0.008  0.00  0.00    +0.100 S 
BRANCH  20  29
ATOM     25  C   LIG    1       -4.291 -12.119  -0.025  0.00  0.00    +0.100 C 
ATOM     26  C   LIG    1       -3.852 -10.678  -0.021  0.00  0.00    -0.070 A 
ATOM     27  C   LIG    1       -4.798  -9.669  -0.006  0.00  0.00    +0.010 A 
ATOM     28  C   LIG    1       -4.402  -8.348  -0.002  0.00  0.00    +0.040 A 
ATOM     29  C   LIG    1       -3.044  -8.029  -0.014  0.00  0.00    -0.040 A 
ATOM     30  C   LIG    1       -2.094  -9.052  -0.034  0.00  0.00    +0.080 A 
ATOM     31  C   LIG    1       -2.503 -10.369  -0.032  0.00  0.00    +0.010 A 
ENDBRANCH  20  29
ENDBRANCH  19  22
ENDBRANCH  18  19
ENDBRANCH   1  18
TORSDOF 8
