REMARK  Name = ZINCpk00000K9Rxf.0
REMARK                            x       y       z     vdW  Elec       q    Type
REMARK                         _______ _______ _______ _____ _____    ______ ____
ROOT
ATOM      1  N   LIG    1       -8.071  -0.074   1.578  0.00  0.00    -0.660 NA
ATOM      2  H   LIG    1       -8.290   0.278   0.658  0.00  0.00    +0.350 HD
ENDROOT
BRANCH   1   7
ATOM      3  C   LIG    1       -2.274   0.401   0.732  0.00  0.00    +0.230 A 
ATOM      4  N   LIG    1       -3.322   1.186   0.689  0.00  0.00    -0.320 NA
ATOM      5  N   LIG    1       -4.435   0.379   0.938  0.00  0.00    -0.380 N 
ATOM      6  C   LIG    1       -5.844   0.770   0.998  0.00  0.00    +0.280 C 
ATOM      7  C   LIG    1       -6.632  -0.334   1.713  0.00  0.00    +0.180 C 
ATOM      8  C   LIG    1       -6.296  -1.690   1.085  0.00  0.00    +0.060 C 
ATOM      9  C   LIG    1       -4.848  -2.062   1.428  0.00  0.00    +0.170 C 
ATOM     10  C   LIG    1       -3.971  -0.871   1.126  0.00  0.00    +0.280 A 
ATOM     11  N   LIG    1       -2.674  -0.844   1.001  0.00  0.00    -0.530 NA
BRANCH   3  13
ATOM     12  C   LIG    1       -0.256   0.076  -0.672  0.00  0.00    +0.050 C 
ATOM     13  C   LIG    1       -0.847   0.835   0.518  0.00  0.00    +0.090 C 
ATOM     14  C   LIG    1       -0.028   0.530   1.775  0.00  0.00    +0.050 C 
ENDBRANCH   3  13
ENDBRANCH   1   7
BRANCH   1  15
ATOM     15  C   LIG    1       -8.540   0.849   2.620  0.00  0.00    +0.330 C 
BRANCH  15  16
ATOM     16  C   LIG    1       -9.986   1.196   2.371  0.00  0.00    +0.250 A 
ATOM     17  N   LIG    1      -11.025   0.483   2.719  0.00  0.00    -0.300 NA
ATOM     18  N   LIG    1      -12.113   1.062   2.358  0.00  0.00    -0.030 NA
ATOM     19  N   LIG    1      -11.848   2.173   1.759  0.00  0.00    -0.070 NA
ATOM     20  N   LIG    1      -10.448   2.303   1.751  0.00  0.00    -0.330 N 
BRANCH  20  21
ATOM     21  C   LIG    1       -9.694   3.356   1.212  0.00  0.00    +0.120 A 
ATOM     22  C   LIG    1      -10.093   4.670   1.410  0.00  0.00    +0.050 A 
ATOM     23  C   LIG    1       -9.345   5.705   0.883  0.00  0.00    +0.040 A 
ATOM     24  C   LIG    1       -8.205   5.431   0.149  0.00  0.00    +0.040 A 
ATOM     25  C   LIG    1       -7.808   4.123  -0.055  0.00  0.00    +0.040 A 
ATOM     26  C   LIG    1       -8.549   3.084   0.474  0.00  0.00    +0.000 A 
ENDBRANCH  20  21
ENDBRANCH  15  16
ENDBRANCH   1  15
TORSDOF 5
