REMARK  Name = ZINCqH00000013tR.0
REMARK                            x       y       z     vdW  Elec       q    Type
REMARK                         _______ _______ _______ _____ _____    ______ ____
ROOT
ATOM      1  C   LIG    1        1.560  -4.180   0.844  0.00  0.00    +0.520 C 
ATOM      2  N   LIG    1        1.948  -4.639   2.050  0.00  0.00    -0.670 N 
ATOM      3  H   LIG    1        1.864  -4.073   2.834  0.00  0.00    +0.410 HD
ATOM      4  O   LIG    1        1.744  -4.853  -0.148  0.00  0.00    -0.520 OA
ENDROOT
BRANCH   2   5
ATOM      5  C   LIG    1        2.472  -5.932   2.173  0.00  0.00    +0.100 A 
ATOM      6  C   LIG    1        2.198  -6.689   3.304  0.00  0.00    +0.030 A 
ATOM      7  C   LIG    1        2.710  -7.966   3.422  0.00  0.00    +0.010 A 
ATOM      8  C   LIG    1        3.508  -8.488   2.414  0.00  0.00    +0.110 A 
ATOM      9  C   LIG    1        3.788  -7.731   1.286  0.00  0.00    -0.060 A 
ATOM     10  C   LIG    1        3.271  -6.456   1.165  0.00  0.00    +0.060 A 
BRANCH   8  11
ATOM     11  O   LIG    1        4.017  -9.744   2.534  0.00  0.00    -0.300 OA
BRANCH  11  12
ATOM     12  C   LIG    1        4.920 -10.177   1.514  0.00  0.00    +0.140 C 
ATOM     13  C   LIG    1        5.763 -11.387   2.000  0.00  0.00    +0.040 C 
ATOM     14  C   LIG    1        6.062 -12.096   0.655  0.00  0.00    +0.220 C 
ATOM     15  O   LIG    1        4.872 -11.927  -0.132  0.00  0.00    -0.380 OA
ATOM     16  C   LIG    1        4.150 -10.774   0.316  0.00  0.00    +0.190 C 
ENDBRANCH  11  12
ENDBRANCH   8  11
ENDBRANCH   2   5
BRANCH   1  17
ATOM     17  C   LIG    1        0.898  -2.831   0.728  0.00  0.00    +0.070 C 
BRANCH  17  18
ATOM     18  C   LIG    1        0.561  -2.554  -0.739  0.00  0.00    +0.210 C 
BRANCH  18  22
ATOM     19  C   LIG    1       -1.612   0.352  -0.929  0.00  0.00    -0.030 A 
ATOM     20  C   LIG    1       -0.403   0.912  -1.095  0.00  0.00    +0.140 A 
ATOM     21  N   LIG    1        0.513  -0.072  -1.045  0.00  0.00    -0.470 NA
ATOM     22  C   LIG    1       -0.102  -1.205  -0.855  0.00  0.00    +0.180 A 
ATOM     23  O   LIG    1       -1.419  -0.973  -0.779  0.00  0.00    -0.190 OA
BRANCH  19  25
ATOM     24  C   LIG    1       -3.139   1.787  -2.256  0.00  0.00    +0.050 C 
ATOM     25  C   LIG    1       -2.937   1.070  -0.919  0.00  0.00    +0.020 C 
ATOM     26  C   LIG    1       -2.954   2.095   0.217  0.00  0.00    +0.050 C 
ATOM     27  C   LIG    1       -4.065   0.057  -0.709  0.00  0.00    +0.040 C 
ENDBRANCH  19  25
ENDBRANCH  18  22
ENDBRANCH  17  18
ENDBRANCH   1  17
TORSDOF 7
