REMARK  Name = ZINCqH0000034xNH.0
REMARK                            x       y       z     vdW  Elec       q    Type
REMARK                         _______ _______ _______ _____ _____    ______ ____
ROOT
ATOM      1  C   LIG    1       -2.139  -0.064   3.056  0.00  0.00    +0.560 C 
ATOM      2  N   LIG    1       -2.789  -0.835   3.951  0.00  0.00    -0.630 N 
ATOM      3  H   LIG    1       -2.332  -1.141   4.750  0.00  0.00    +0.420 HD
ATOM      4  O   LIG    1       -2.712   0.319   2.055  0.00  0.00    -0.440 OA
ENDROOT
BRANCH   2   5
ATOM      5  C   LIG    1       -4.111  -1.191   3.729  0.00  0.00    +0.060 A 
ATOM      6  C   LIG    1       -4.859  -1.966   4.570  0.00  0.00    -0.110 A 
ATOM      7  C   LIG    1       -6.213  -2.186   4.099  0.00  0.00    -0.040 A 
ATOM      8  C   LIG    1       -6.451  -1.579   2.930  0.00  0.00    -0.250 A 
ATOM      9  C   LIG    1       -7.777  -1.631   2.194  0.00  0.00    +0.120 C 
ATOM     10  C   LIG    1       -8.610  -2.783   2.763  0.00  0.00    +0.020 C 
ATOM     11  C   LIG    1       -8.637  -2.673   4.290  0.00  0.00    +0.020 C 
ATOM     12  C   LIG    1       -7.251  -3.010   4.843  0.00  0.00    +0.100 C 
ATOM     13  S   LIG    1       -5.027  -0.715   2.375  0.00  0.00    +0.330 S 
BRANCH   6  14
ATOM     14  C   LIG    1       -4.354  -2.508   5.796  0.00  0.00    +0.270 C 
ATOM     15  N   LIG    1       -3.954  -2.938   6.768  0.00  0.00    -0.410 NA
ENDBRANCH   6  14
ENDBRANCH   2   5
BRANCH   1  21
ATOM     16  C   LIG    1       -0.053   1.117   2.363  0.00  0.00    +0.210 A 
ATOM     17  C   LIG    1        1.269   1.470   2.600  0.00  0.00    +0.000 A 
ATOM     18  C   LIG    1        1.909   1.030   3.740  0.00  0.00    +0.150 A 
ATOM     19  C   LIG    1        1.241   0.233   4.656  0.00  0.00    -0.050 A 
ATOM     20  C   LIG    1       -0.070  -0.129   4.439  0.00  0.00    +0.140 A 
ATOM     21  C   LIG    1       -0.735   0.314   3.292  0.00  0.00    -0.120 A 
BRANCH  16  23
ATOM     22  C   LIG    1       -0.013   1.086   0.008  0.00  0.00    +0.230 C 
ATOM     23  N   LIG    1       -0.700   1.560   1.217  0.00  0.00    -0.500 N 
ATOM     24  C   LIG    1       -0.822   3.023   1.213  0.00  0.00    +0.230 C 
ENDBRANCH  16  23
BRANCH  19  25
ATOM     25  N   LIG    1        1.941  -0.232   5.875  0.00  0.00    +0.030 N 
ATOM     26  O   LIG    1        1.357  -0.932   6.683  0.00  0.00    -0.150 OA
ATOM     27  O   LIG    1        3.100   0.086   6.071  0.00  0.00    -0.150 OA
ENDBRANCH  19  25
ENDBRANCH   1  21
TORSDOF 5
