REMARK  Name = ZINCqH00000037S4.0
REMARK                            x       y       z     vdW  Elec       q    Type
REMARK                         _______ _______ _______ _____ _____    ______ ____
ROOT
ATOM      1  C   LIG    1       -2.968  -0.376  -3.408  0.00  0.00    +0.020 C 
ATOM      2  C   LIG    1       -1.845   0.012  -4.372  0.00  0.00    +0.080 C 
ENDROOT
BRANCH   1   4
ATOM      3  N   LIG    1       -1.726  -1.018  -1.367  0.00  0.00    -0.600 N 
ATOM      4  C   LIG    1       -2.522  -0.127  -1.990  0.00  0.00    +0.540 C 
ATOM      5  O   LIG    1       -2.881   0.876  -1.409  0.00  0.00    -0.520 OA
BRANCH   3   7
ATOM      6  C   LIG    1       -2.307  -3.349  -1.824  0.00  0.00    +0.020 C 
ATOM      7  C   LIG    1       -1.293  -2.229  -2.069  0.00  0.00    +0.270 C 
ENDBRANCH   3   7
BRANCH   3   8
ATOM      8  C   LIG    1       -1.293  -0.775   0.011  0.00  0.00    +0.350 C 
BRANCH   8   9
ATOM      9  C   LIG    1        0.002  -0.004   0.002  0.00  0.00    -0.110 A 
ATOM     10  C   LIG    1       -0.017   1.378   0.010  0.00  0.00    +0.040 A 
ATOM     11  C   LIG    1        1.171   2.086   0.002  0.00  0.00    +0.000 A 
ATOM     12  C   LIG    1        2.377   1.411  -0.015  0.00  0.00    +0.010 A 
ATOM     13  C   LIG    1        2.396   0.029  -0.022  0.00  0.00    +0.000 A 
ATOM     14  C   LIG    1        1.208  -0.679  -0.013  0.00  0.00    +0.010 A 
ENDBRANCH   8   9
ENDBRANCH   3   8
ENDBRANCH   1   4
BRANCH   1  15
ATOM     15  S   LIG    1       -4.438   0.619  -3.762  0.00  0.00    +0.080 S 
BRANCH  15  16
ATOM     16  C   LIG    1       -4.821   0.035  -5.380  0.00  0.00    +0.150 A 
ATOM     17  N   LIG    1       -4.157  -0.871  -6.060  0.00  0.00    -0.290 NA
ATOM     18  N   LIG    1       -4.716  -1.058  -7.202  0.00  0.00    -0.280 NA
ATOM     19  C   LIG    1       -5.756  -0.282  -7.324  0.00  0.00    +0.400 A 
ATOM     20  N   LIG    1       -5.862   0.443  -6.167  0.00  0.00    -0.420 N 
BRANCH  20  21
ATOM     21  C   LIG    1       -6.834   1.404  -5.856  0.00  0.00    +0.110 A 
ATOM     22  C   LIG    1       -7.521   1.333  -4.651  0.00  0.00    +0.020 A 
ATOM     23  C   LIG    1       -8.475   2.284  -4.345  0.00  0.00    +0.040 A 
ATOM     24  C   LIG    1       -8.753   3.300  -5.241  0.00  0.00    +0.030 A 
ATOM     25  C   LIG    1       -8.074   3.371  -6.443  0.00  0.00    +0.040 A 
ATOM     26  C   LIG    1       -7.115   2.425  -6.753  0.00  0.00    +0.020 A 
ENDBRANCH  20  21
ENDBRANCH  15  16
ENDBRANCH   1  15
TORSDOF 7
