REMARK  Name = ZINCrH000004lXyP.0
REMARK                            x       y       z     vdW  Elec       q    Type
REMARK                         _______ _______ _______ _____ _____    ______ ____
ROOT
ATOM      1  C   LIG    1       -2.314  -2.862   0.934  0.00  0.00    +0.570 C 
ATOM      2  N   LIG    1       -2.388  -4.178   0.651  0.00  0.00    -0.610 N 
ATOM      3  C   LIG    1       -1.183  -4.912   0.259  0.00  0.00    +0.300 C 
ATOM      4  O   LIG    1       -3.294  -2.272   1.345  0.00  0.00    -0.520 OA
ENDROOT
BRANCH   1   7
ATOM      5  C   LIG    1        0.147  -0.165   0.050  0.00  0.00    +0.130 A 
ATOM      6  C   LIG    1       -1.046  -0.839   0.227  0.00  0.00    +0.000 A 
ATOM      7  C   LIG    1       -1.042  -2.137   0.744  0.00  0.00    -0.090 A 
ATOM      8  C   LIG    1        0.168  -2.747   1.081  0.00  0.00    +0.030 A 
ATOM      9  C   LIG    1        1.361  -2.068   0.903  0.00  0.00    +0.080 A 
ATOM     10  O   LIG    1        2.530  -2.677   1.240  0.00  0.00    -0.300 OA
ATOM     11  C   LIG    1        3.730  -2.113   0.698  0.00  0.00    +0.230 C 
ATOM     12  C   LIG    1        3.671  -0.591   0.887  0.00  0.00    +0.230 C 
ATOM     13  O   LIG    1        2.518  -0.098   0.196  0.00  0.00    -0.290 OA
ATOM     14  C   LIG    1        1.354  -0.777   0.385  0.00  0.00    +0.040 A 
BRANCH   5  16
ATOM     15  C   LIG    1       -1.128   1.665  -0.776  0.00  0.00    +0.250 C 
ATOM     16  O   LIG    1        0.144   1.098  -0.454  0.00  0.00    -0.300 OA
ENDBRANCH   5  16
ENDBRANCH   1   7
BRANCH   2  17
ATOM     17  C   LIG    1       -3.675  -4.874   0.737  0.00  0.00    +0.350 C 
BRANCH  17  18
ATOM     18  C   LIG    1       -4.372  -4.805  -0.597  0.00  0.00    -0.080 A 
ATOM     19  C   LIG    1       -5.227  -3.755  -0.877  0.00  0.00    +0.040 A 
ATOM     20  C   LIG    1       -5.863  -3.690  -2.103  0.00  0.00    +0.070 A 
ATOM     21  C   LIG    1       -5.652  -4.680  -3.045  0.00  0.00    -0.180 A 
ATOM     22  C   LIG    1       -4.802  -5.732  -2.763  0.00  0.00    +0.070 A 
ATOM     23  C   LIG    1       -4.162  -5.795  -1.539  0.00  0.00    +0.020 A 
BRANCH  21  24
ATOM     24  C   LIG    1       -6.350  -4.612  -4.379  0.00  0.00    +0.510 C 
ATOM     25  F   LIG    1       -5.554  -5.222  -5.353  0.00  0.00    -0.180 F 
ATOM     26  F   LIG    1       -6.566  -3.273  -4.724  0.00  0.00    -0.180 F 
ATOM     27  F   LIG    1       -7.579  -5.276  -4.297  0.00  0.00    -0.180 F 
ENDBRANCH  21  24
ENDBRANCH  17  18
ENDBRANCH   2  17
TORSDOF 5
