REMARK  Name = ZINCtV00000L6kiF.0
REMARK                            x       y       z     vdW  Elec       q    Type
REMARK                         _______ _______ _______ _____ _____    ______ ____
ROOT
ATOM      1  C   LIG    1        0.055  -0.077   0.124  0.00  0.00    -0.260 A 
ATOM      2  C   LIG    1        1.369  -0.445   0.185  0.00  0.00    +0.080 A 
ATOM      3  O   LIG    1        2.136   0.647   0.252  0.00  0.00    -0.160 OA
ATOM      4  C   LIG    1        1.392   1.771   0.238  0.00  0.00    +0.030 A 
ATOM      5  C   LIG    1        1.721   3.143   0.289  0.00  0.00    +0.010 A 
ATOM      6  C   LIG    1        3.056   3.568   0.369  0.00  0.00    +0.020 A 
ATOM      7  C   LIG    1        3.338   4.900   0.416  0.00  0.00    +0.030 A 
ATOM      8  C   LIG    1        2.318   5.848   0.387  0.00  0.00    +0.010 A 
ATOM      9  C   LIG    1        1.012   5.469   0.309  0.00  0.00    +0.060 A 
ATOM     10  C   LIG    1        0.684   4.105   0.258  0.00  0.00    -0.040 A 
ATOM     11  C   LIG    1       -0.667   3.690   0.177  0.00  0.00    +0.150 A 
ATOM     12  O   LIG    1       -1.643   4.636   0.156  0.00  0.00    -0.330 OA
ATOM     13  C   LIG    1       -2.941   4.232  -0.284  0.00  0.00    +0.440 C 
ATOM     14  N   LIG    1       -3.305   2.993   0.425  0.00  0.00    -0.540 NA
ATOM     15  C   LIG    1       -2.403   1.904   0.028  0.00  0.00    +0.280 C 
ATOM     16  C   LIG    1       -0.969   2.365   0.121  0.00  0.00    -0.170 A 
ATOM     17  C   LIG    1        1.875  -1.864   0.179  0.00  0.00    +0.190 C 
ATOM     18  C   LIG    1        0.054   1.401   0.158  0.00  0.00    -0.060 A 
ENDROOT
BRANCH   1  20
ATOM     19  C   LIG    1       -1.705  -1.296  -1.302  0.00  0.00    +0.080 C 
ATOM     20  C   LIG    1       -1.108  -0.960   0.041  0.00  0.00    +0.430 C 
ATOM     21  O   LIG    1       -1.593  -1.422   1.053  0.00  0.00    -0.440 OA
ENDBRANCH   1  20
BRANCH  14  22
ATOM     22  C   LIG    1       -3.280   3.193   1.880  0.00  0.00    +0.190 C 
BRANCH  22  23
ATOM     23  C   LIG    1       -3.572   1.865   2.582  0.00  0.00    +0.060 C 
BRANCH  23  24
ATOM     24  C   LIG    1       -3.683   2.095   4.067  0.00  0.00    -0.120 C 
ATOM     25  C   LIG    1       -4.864   2.277   4.566  0.00  0.00    -0.050 C 
ATOM     26  C   LIG    1       -5.132   2.527   6.022  0.00  0.00    +0.050 C 
ATOM     27  C   LIG    1       -3.917   2.121   6.859  0.00  0.00    +0.000 C 
ATOM     28  C   LIG    1       -2.666   2.753   6.237  0.00  0.00    +0.000 C 
ATOM     29  C   LIG    1       -2.419   2.094   4.876  0.00  0.00    +0.060 C 
ENDBRANCH  23  24
ENDBRANCH  22  23
ENDBRANCH  14  22
TORSDOF 4
