REMARK  Name = ZINCpe00000VURNZ.0
REMARK                            x       y       z     vdW  Elec       q    Type
REMARK                         _______ _______ _______ _____ _____    ______ ____
ROOT
ATOM      1  N   LIG    1       -0.259  10.209   1.516  0.00  0.00    -0.490 NA
ENDROOT
BRANCH   1   2
ATOM      2  C   LIG    1       -1.489   9.614   2.054  0.00  0.00    +0.260 C 
BRANCH   2   6
ATOM      3  N   LIG    1       -3.904   9.610   1.517  0.00  0.00    -0.850 N 
ATOM      4  H   LIG    1       -4.658   9.872   0.966  0.00  0.00    +0.400 HD
ATOM      5  H   LIG    1       -4.044   9.052   2.298  0.00  0.00    +0.400 HD
ATOM      6  C   LIG    1       -2.661  10.021   1.198  0.00  0.00    +0.490 C 
ATOM      7  O   LIG    1       -2.485  10.719   0.222  0.00  0.00    -0.550 OA
ENDBRANCH   2   6
ENDBRANCH   1   2
BRANCH   1   8
ATOM      8  C   LIG    1        0.042   9.678   0.179  0.00  0.00    +0.250 C 
BRANCH   8   9
ATOM      9  C   LIG    1        0.518   8.253   0.301  0.00  0.00    -0.080 A 
ATOM     10  C   LIG    1       -0.377   7.212   0.134  0.00  0.00    +0.010 A 
ATOM     11  C   LIG    1        0.053   5.905   0.243  0.00  0.00    +0.010 A 
ATOM     12  C   LIG    1        1.392   5.636   0.523  0.00  0.00    -0.040 A 
ATOM     13  C   LIG    1        2.287   6.689   0.695  0.00  0.00    +0.020 A 
ATOM     14  C   LIG    1        1.847   7.992   0.578  0.00  0.00    +0.040 A 
BRANCH  12  15
ATOM     15  C   LIG    1        1.860   4.233   0.642  0.00  0.00    -0.050 A 
ATOM     16  C   LIG    1        3.198   3.964   0.922  0.00  0.00    +0.020 A 
ATOM     17  C   LIG    1        3.628   2.657   1.031  0.00  0.00    +0.000 A 
ATOM     18  C   LIG    1        2.734   1.615   0.864  0.00  0.00    +0.000 A 
ATOM     19  C   LIG    1        1.405   1.877   0.582  0.00  0.00    +0.000 A 
ATOM     20  C   LIG    1        0.963   3.180   0.475  0.00  0.00    +0.010 A 
ENDBRANCH  12  15
ENDBRANCH   8   9
ENDBRANCH   1   8
BRANCH   1  21
ATOM     21  C   LIG    1       -0.351  11.675   1.491  0.00  0.00    +0.240 C 
BRANCH  21  22
ATOM     22  C   LIG    1       -0.414  12.198   2.903  0.00  0.00    +0.520 C 
ATOM     23  N   LIG    1       -0.503  13.524   3.127  0.00  0.00    -0.690 N 
ATOM     24  H   LIG    1       -0.525  14.142   2.379  0.00  0.00    +0.410 HD
ATOM     25  C   LIG    1       -0.560  13.992   4.389  0.00  0.00    +0.700 C 
ATOM     26  O   LIG    1       -0.531  13.218   5.326  0.00  0.00    -0.530 OA
ATOM     27  N   LIG    1       -0.648  15.318   4.613  0.00  0.00    -0.860 N 
ATOM     28  H   LIG    1       -0.689  15.655   5.522  0.00  0.00    +0.420 HD
ATOM     29  H   LIG    1       -0.671  15.936   3.866  0.00  0.00    +0.400 HD
ATOM     30  O   LIG    1       -0.386  11.426   3.837  0.00  0.00    -0.450 OA
ENDBRANCH  21  22
ENDBRANCH   1  21
TORSDOF 7
