REMARK  Name = ZINCqH0000037Bhk.1
REMARK                            x       y       z     vdW  Elec       q    Type
REMARK                         _______ _______ _______ _____ _____    ______ ____
ROOT
ATOM      1  C   LIG    1       -0.200   4.139   0.563  0.00  0.00    +0.130 C 
ATOM      2  C   LIG    1       -1.394   3.223   0.497  0.00  0.00    -0.070 A 
ATOM      3  C   LIG    1       -1.295   1.901   0.705  0.00  0.00    -0.190 A 
ATOM      4  S   LIG    1       -2.867   1.133   0.561  0.00  0.00    +0.250 S 
ATOM      5  C   LIG    1       -3.641   2.671   0.205  0.00  0.00    +0.050 A 
ATOM      6  N   LIG    1       -4.918   2.979  -0.050  0.00  0.00    -0.500 NA
ATOM      7  C   LIG    1       -5.281   4.217  -0.295  0.00  0.00    +0.280 A 
ATOM      8  N   LIG    1       -4.417   5.216  -0.301  0.00  0.00    -0.590 NA
ATOM      9  C   LIG    1       -3.130   5.015  -0.060  0.00  0.00    +0.500 A 
ATOM     10  C   LIG    1       -2.679   3.692   0.211  0.00  0.00    -0.180 A 
ENDROOT
BRANCH   3  11
ATOM     11  C   LIG    1       -0.050   1.198   1.015  0.00  0.00    +0.540 C 
ATOM     12  O   LIG    1        1.002   1.821   1.090  0.00  0.00    -0.650 OA
ATOM     13  O   LIG    1       -0.059  -0.013   1.194  0.00  0.00    -0.660 OA
ENDBRANCH   3  11
BRANCH   9  14
ATOM     14  N   LIG    1       -2.242   6.070  -0.072  0.00  0.00    -0.690 N 
ATOM     15  H   LIG    1       -1.291   5.904   0.019  0.00  0.00    +0.420 HD
BRANCH  14  16
ATOM     16  C   LIG    1       -2.735   7.441  -0.222  0.00  0.00    +0.250 C 
ATOM     17  C   LIG    1       -3.142   7.990   1.147  0.00  0.00    +0.010 C 
ATOM     18  C   LIG    1       -3.657   9.422   0.991  0.00  0.00    +0.040 C 
ATOM     19  C   LIG    1       -2.553  10.299   0.397  0.00  0.00    +0.030 C 
ATOM     20  C   LIG    1       -2.146   9.751  -0.972  0.00  0.00    +0.300 C 
ATOM     21  F   LIG    1       -3.255   9.757  -1.825  0.00  0.00    -0.200 F 
ATOM     22  F   LIG    1       -1.136  10.553  -1.514  0.00  0.00    -0.200 F 
ATOM     23  C   LIG    1       -1.631   8.319  -0.815  0.00  0.00    +0.020 C 
ENDBRANCH  14  16
ENDBRANCH   9  14
BRANCH   7  24
ATOM     24  C   LIG    1       -6.732   4.508  -0.577  0.00  0.00    +0.390 C 
BRANCH  24  25
ATOM     25  N   LIG    1       -6.981   4.401  -2.021  0.00  0.00    -0.380 N 
ATOM     26  C   LIG    1       -8.365   4.800  -2.310  0.00  0.00    +0.320 C 
ATOM     27  C   LIG    1       -6.772   3.012  -2.452  0.00  0.00    +0.320 C 
ATOM     28  H   LIG    1       -6.346   5.007  -2.518  0.00  0.00    +0.430 HD
ENDBRANCH  24  25
ENDBRANCH   7  24
TORSDOF 5
