REMARK  Name = ZINCrH000004r74N.0
REMARK                            x       y       z     vdW  Elec       q    Type
REMARK                         _______ _______ _______ _____ _____    ______ ____
ROOT
ATOM      1  S   LIG    1       -6.160   2.677   1.981  0.00  0.00    +0.130 S 
ENDROOT
BRANCH   1   6
ATOM      2  N   LIG    1       -8.714   3.774   1.683  0.00  0.00    -0.310 N 
ATOM      3  N   LIG    1       -9.661   3.846   0.646  0.00  0.00    -0.060 NA
ATOM      4  N   LIG    1       -9.150   3.238  -0.369  0.00  0.00    -0.030 NA
ATOM      5  N   LIG    1       -7.979   2.794  -0.086  0.00  0.00    -0.330 NA
ATOM      6  C   LIG    1       -7.662   3.087   1.157  0.00  0.00    +0.200 A 
BRANCH   2  12
ATOM      7  C   LIG    1       -8.286   3.169   6.546  0.00  0.00    +0.100 C 
ATOM      8  C   LIG    1       -8.628   4.025   5.353  0.00  0.00    -0.070 A 
ATOM      9  C   LIG    1       -9.056   5.327   5.537  0.00  0.00    +0.050 A 
ATOM     10  C   LIG    1       -9.370   6.115   4.445  0.00  0.00    +0.040 A 
ATOM     11  C   LIG    1       -9.253   5.605   3.167  0.00  0.00    -0.060 A 
ATOM     12  C   LIG    1       -8.829   4.296   2.979  0.00  0.00    +0.110 A 
ATOM     13  C   LIG    1       -9.589   6.467   1.978  0.00  0.00    +0.100 C 
ATOM     14  C   LIG    1       -8.514   3.507   4.077  0.00  0.00    +0.040 A 
ENDBRANCH   2  12
ENDBRANCH   1   6
BRANCH   1  15
ATOM     15  C   LIG    1       -5.304   1.793   0.654  0.00  0.00    +0.100 C 
BRANCH  15  16
ATOM     16  C   LIG    1       -3.955   1.334   1.144  0.00  0.00    +0.550 C 
ATOM     17  N   LIG    1       -3.136   0.650   0.321  0.00  0.00    -0.610 N 
ATOM     18  C   LIG    1       -3.432   0.284  -1.076  0.00  0.00    +0.260 C 
ATOM     19  C   LIG    1       -2.044   0.101  -1.740  0.00  0.00    +0.040 C 
ATOM     20  C   LIG    1       -1.231  -0.547  -0.589  0.00  0.00    +0.040 C 
ATOM     21  C   LIG    1       -1.795   0.144   0.670  0.00  0.00    +0.310 C 
ATOM     22  O   LIG    1       -3.607   1.580   2.279  0.00  0.00    -0.510 OA
BRANCH  21  23
ATOM     23  C   LIG    1       -1.896  -0.850   1.798  0.00  0.00    -0.180 A 
ATOM     24  C   LIG    1       -1.017  -0.975   2.794  0.00  0.00    +0.020 A 
ATOM     25  C   LIG    1       -1.321  -1.957   3.720  0.00  0.00    +0.010 A 
ATOM     26  C   LIG    1       -2.442  -2.636   3.472  0.00  0.00    -0.050 A 
ATOM     27  S   LIG    1       -3.188  -2.027   2.000  0.00  0.00    +0.100 S 
ENDBRANCH  21  23
ENDBRANCH  15  16
ENDBRANCH   1  15
TORSDOF 5
