REMARK  Name = ZINCtV00000L6k1P.0
REMARK                            x       y       z     vdW  Elec       q    Type
REMARK                         _______ _______ _______ _____ _____    ______ ____
ROOT
ATOM      1  C   LIG    1        3.721   1.906   0.962  0.00  0.00    +0.440 A 
ATOM      2  C   LIG    1        2.403   1.537   0.791  0.00  0.00    -0.070 A 
ATOM      3  C   LIG    1        1.636   2.185  -0.177  0.00  0.00    +0.230 A 
ATOM      4  N   LIG    1        2.166   3.132  -0.921  0.00  0.00    -0.460 NA
ATOM      5  C   LIG    1        3.441   3.505  -0.763  0.00  0.00    +0.290 A 
ATOM      6  C   LIG    1        4.231   4.465  -1.406  0.00  0.00    -0.200 A 
ATOM      7  C   LIG    1        5.504   4.410  -0.827  0.00  0.00    +0.310 A 
ATOM      8  N   LIG    1        5.505   3.487   0.103  0.00  0.00    -0.300 NA
ATOM      9  N   LIG    1        4.237   2.900   0.173  0.00  0.00    -0.330 N 
ENDROOT
BRANCH   6  10
ATOM     10  C   LIG    1        3.801   5.371  -2.496  0.00  0.00    +0.010 A 
ATOM     11  C   LIG    1        3.150   4.857  -3.618  0.00  0.00    +0.020 A 
ATOM     12  C   LIG    1        2.747   5.707  -4.628  0.00  0.00    +0.000 A 
ATOM     13  C   LIG    1        2.997   7.064  -4.535  0.00  0.00    +0.000 A 
ATOM     14  C   LIG    1        3.647   7.580  -3.427  0.00  0.00    +0.000 A 
ATOM     15  C   LIG    1        4.050   6.741  -2.408  0.00  0.00    +0.010 A 
ENDBRANCH   6  10
BRANCH   3  16
ATOM     16  C   LIG    1        0.195   1.794  -0.376  0.00  0.00    +0.050 C 
ATOM     17  C   LIG    1       -0.605   2.135   0.883  0.00  0.00    +0.050 C 
ATOM     18  C   LIG    1       -0.381   2.559  -1.569  0.00  0.00    +0.040 C 
ENDBRANCH   3  16
BRANCH   1  19
ATOM     19  N   LIG    1        4.506   1.284   1.910  0.00  0.00    -0.680 N 
ATOM     20  H   LIG    1        4.242   1.299   2.844  0.00  0.00    +0.420 HD
BRANCH  19  24
ATOM     21  C   LIG    1        8.008  -0.659   0.766  0.00  0.00    -0.110 A 
ATOM     22  C   LIG    1        7.714  -0.500   2.108  0.00  0.00    +0.050 A 
ATOM     23  C   LIG    1        6.553   0.144   2.491  0.00  0.00    -0.030 A 
ATOM     24  C   LIG    1        5.681   0.632   1.526  0.00  0.00    +0.180 A 
ATOM     25  C   LIG    1        5.978   0.467   0.179  0.00  0.00    -0.040 A 
ATOM     26  C   LIG    1        7.142  -0.173  -0.197  0.00  0.00    +0.040 A 
BRANCH  21  27
ATOM     27  C   LIG    1        9.275  -1.362   0.353  0.00  0.00    +0.060 C 
BRANCH  27  28
ATOM     28  C   LIG    1        9.002  -2.860   0.208  0.00  0.00    +0.010 C 
BRANCH  28  30
ATOM     29  C   LIG    1       10.017  -5.073  -0.357  0.00  0.00    +0.000 C 
ATOM     30  C   LIG    1       10.289  -3.574  -0.212  0.00  0.00    -0.010 C 
ENDBRANCH  28  30
ENDBRANCH  27  28
ENDBRANCH  21  27
ENDBRANCH  19  24
ENDBRANCH   1  19
TORSDOF 7
