REMARK  Name = ZINCqH0000000vzV.0
REMARK                            x       y       z     vdW  Elec       q    Type
REMARK                         _______ _______ _______ _____ _____    ______ ____
ROOT
ATOM      1  C   LIG    1       -3.610   2.736   3.120  0.00  0.00    +0.590 C 
ATOM      2  N   LIG    1       -4.666   2.779   2.284  0.00  0.00    -0.630 N 
ATOM      3  H   LIG    1       -4.560   2.522   1.355  0.00  0.00    +0.420 HD
ATOM      4  O   LIG    1       -3.743   3.059   4.286  0.00  0.00    -0.490 OA
ENDROOT
BRANCH   1   9
ATOM      5  C   LIG    1       -0.138   1.751   2.494  0.00  0.00    -0.260 A 
ATOM      6  C   LIG    1       -0.717   1.577   1.247  0.00  0.00    +0.120 A 
ATOM      7  N   LIG    1       -2.013   1.914   1.333  0.00  0.00    -0.530 N 
ATOM      8  H   LIG    1       -2.649   1.888   0.601  0.00  0.00    +0.420 HD
ATOM      9  C   LIG    1       -2.299   2.300   2.624  0.00  0.00    -0.070 A 
ATOM     10  C   LIG    1       -0.010   1.098   0.005  0.00  0.00    +0.160 C 
ATOM     11  C   LIG    1       -1.157   2.212   3.363  0.00  0.00    -0.010 A 
ATOM     12  C   LIG    1       -1.007   2.541   4.825  0.00  0.00    +0.140 C 
BRANCH   5  14
ATOM     13  C   LIG    1        1.711   0.119   3.235  0.00  0.00    +0.070 C 
ATOM     14  C   LIG    1        1.264   1.505   2.847  0.00  0.00    +0.430 C 
ATOM     15  O   LIG    1        2.064   2.417   2.827  0.00  0.00    -0.450 OA
ENDBRANCH   5  14
ENDBRANCH   1   9
BRANCH   2  16
ATOM     16  C   LIG    1       -5.906   3.192   2.752  0.00  0.00    +0.240 A 
ATOM     17  N   LIG    1       -6.983   3.270   2.035  0.00  0.00    -0.510 NA
ATOM     18  C   LIG    1       -8.079   3.683   2.644  0.00  0.00    +0.100 A 
ATOM     19  C   LIG    1       -7.920   3.969   3.938  0.00  0.00    -0.110 A 
ATOM     20  S   LIG    1       -6.237   3.665   4.362  0.00  0.00    +0.250 S 
BRANCH  18  21
ATOM     21  C   LIG    1       -9.402   3.823   1.935  0.00  0.00    +0.270 C 
BRANCH  21  22
ATOM     22  N   LIG    1       -9.469   5.134   1.277  0.00  0.00    -0.530 NA
ATOM     23  C   LIG    1       -8.481   5.231   0.195  0.00  0.00    +0.170 C 
ATOM     24  C   LIG    1       -8.479   6.653  -0.370  0.00  0.00    +0.010 C 
ATOM     25  C   LIG    1       -9.877   6.989  -0.898  0.00  0.00    +0.000 C 
ATOM     26  C   LIG    1      -10.893   6.834   0.237  0.00  0.00    -0.010 C 
ATOM     27  C   LIG    1      -12.300   7.110  -0.297  0.00  0.00    +0.020 C 
ATOM     28  C   LIG    1      -10.825   5.407   0.784  0.00  0.00    +0.170 C 
ENDBRANCH  21  22
ENDBRANCH  18  21
ENDBRANCH   2  16
TORSDOF 5
