REMARK  Name = ZINCrD0000074lG6.0
REMARK                            x       y       z     vdW  Elec       q    Type
REMARK                         _______ _______ _______ _____ _____    ______ ____
ROOT
ATOM      1  C   LIG    1        1.502   3.345   0.006  0.00  0.00    +0.550 C 
ATOM      2  O   LIG    1        0.528   4.073   0.019  0.00  0.00    -0.480 OA
ENDROOT
BRANCH   1   5
ATOM      3  C   LIG    1        2.027   6.281   0.016  0.00  0.00    +0.140 C 
ATOM      4  C   LIG    1        3.116   5.239   0.000  0.00  0.00    +0.070 A 
ATOM      5  C   LIG    1        2.848   3.923  -0.004  0.00  0.00    -0.280 A 
ATOM      6  S   LIG    1        4.337   2.993  -0.016  0.00  0.00    +0.290 S 
ATOM      7  C   LIG    1        5.309   4.459  -0.023  0.00  0.00    +0.090 A 
ATOM      8  N   LIG    1        6.645   4.634  -0.035  0.00  0.00    -0.510 NA
ATOM      9  C   LIG    1        7.191   5.813  -0.034  0.00  0.00    +0.620 A 
ATOM     10  N   LIG    1        6.461   6.956  -0.021  0.00  0.00    -0.540 N 
ATOM     11  C   LIG    1        7.141   8.254  -0.021  0.00  0.00    +0.340 C 
ATOM     12  C   LIG    1        5.113   6.905  -0.009  0.00  0.00    +0.560 A 
ATOM     13  O   LIG    1        4.448   7.925   0.002  0.00  0.00    -0.500 OA
ATOM     14  C   LIG    1        4.468   5.576  -0.010  0.00  0.00    -0.250 A 
ENDBRANCH   1   5
BRANCH   1  15
ATOM     15  O   LIG    1        1.344   2.005   0.000  0.00  0.00    -0.350 OA
BRANCH  15  16
ATOM     16  C   LIG    1       -0.018   1.503   0.010  0.00  0.00    +0.360 C 
BRANCH  16  17
ATOM     17  C   LIG    1        0.002  -0.004   0.002  0.00  0.00    -0.040 A 
ATOM     18  C   LIG    1        0.023  -0.817   1.082  0.00  0.00    +0.000 A 
ATOM     19  C   LIG    1        0.035  -2.127   0.525  0.00  0.00    +0.060 A 
ATOM     20  N   LIG    1        0.020  -1.969  -0.775  0.00  0.00    -0.340 NA
ATOM     21  O   LIG    1       -0.003  -0.799  -1.078  0.00  0.00    +0.120 OA
BRANCH  19  22
ATOM     22  C   LIG    1        0.059  -3.412   1.268  0.00  0.00    -0.030 A 
ATOM     23  C   LIG    1        0.077  -3.414   2.661  0.00  0.00    +0.040 A 
ATOM     24  C   LIG    1        0.094  -4.611   3.347  0.00  0.00    +0.010 A 
ATOM     25  C   LIG    1        0.103  -5.808   2.653  0.00  0.00    +0.020 A 
ATOM     26  C   LIG    1        0.090  -5.812   1.270  0.00  0.00    +0.010 A 
ATOM     27  C   LIG    1        0.068  -4.620   0.575  0.00  0.00    +0.040 A 
ENDBRANCH  19  22
ENDBRANCH  16  17
ENDBRANCH  15  16
ENDBRANCH   1  15
TORSDOF 5
