REMARK  Name = ZINCpk00000xPKxP.0
REMARK                            x       y       z     vdW  Elec       q    Type
REMARK                         _______ _______ _______ _____ _____    ______ ____
ROOT
ATOM      1  C   LIG    1        2.461   1.202   0.027  0.00  0.00    +0.270 C 
ATOM      2  C   LIG    1        2.882   2.022   1.245  0.00  0.00    +0.220 C 
ATOM      3  N   LIG    1        2.970   3.441   0.873  0.00  0.00    -0.680 NA
ATOM      4  H   LIG    1        3.661   3.583   0.151  0.00  0.00    +0.340 HD
ATOM      5  C   LIG    1        1.662   3.965   0.459  0.00  0.00    +0.210 C 
ATOM      6  C   LIG    1        1.192   3.223  -0.797  0.00  0.00    +0.240 C 
ATOM      7  N   LIG    1        1.225   1.778  -0.526  0.00  0.00    -0.600 N 
ATOM      8  C   LIG    1        0.151   1.003  -0.774  0.00  0.00    +0.560 C 
ATOM      9  O   LIG    1        0.220  -0.200  -0.615  0.00  0.00    -0.480 OA
ENDROOT
BRANCH   8  10
ATOM     10  C   LIG    1       -1.114   1.617  -1.246  0.00  0.00    -0.030 A 
ATOM     11  C   LIG    1       -1.282   1.944  -2.561  0.00  0.00    -0.010 A 
ATOM     12  C   LIG    1       -2.540   2.545  -2.997  0.00  0.00    +0.540 A 
ATOM     13  N   LIG    1       -3.531   2.787  -2.122  0.00  0.00    -0.630 N 
ATOM     14  H   LIG    1       -4.356   3.190  -2.437  0.00  0.00    +0.420 HD
ATOM     15  C   LIG    1       -3.399   2.476  -0.785  0.00  0.00    +0.190 A 
ATOM     16  C   LIG    1       -4.438   2.736   0.105  0.00  0.00    -0.020 A 
ATOM     17  C   LIG    1       -4.292   2.421   1.438  0.00  0.00    +0.080 A 
ATOM     18  C   LIG    1       -3.118   1.845   1.905  0.00  0.00    -0.010 A 
ATOM     19  C   LIG    1       -2.087   1.581   1.049  0.00  0.00    +0.080 A 
ATOM     20  O   LIG    1       -2.693   2.833  -4.171  0.00  0.00    -0.520 OA
ATOM     21  C   LIG    1       -2.212   1.893  -0.308  0.00  0.00    -0.110 A 
ENDBRANCH   8  10
BRANCH   1  25
ATOM     22  C   LIG    1        2.841  -3.776   0.468  0.00  0.00    +0.340 C 
ATOM     23  N   LIG    1        2.383  -2.393   0.629  0.00  0.00    -0.380 N 
ATOM     24  C   LIG    1        2.915  -1.307   0.031  0.00  0.00    +0.230 A 
ATOM     25  C   LIG    1        2.212  -0.225   0.441  0.00  0.00    -0.220 A 
ATOM     26  C   LIG    1        1.211  -0.667   1.312  0.00  0.00    +0.270 A 
ATOM     27  N   LIG    1        1.312  -1.967   1.425  0.00  0.00    -0.300 NA
ENDBRANCH   1  25
TORSDOF 2
