REMARK  Name = ZINCqH0000007leM.0
REMARK                            x       y       z     vdW  Elec       q    Type
REMARK                         _______ _______ _______ _____ _____    ______ ____
ROOT
ATOM      1  S   LIG    1       -2.200   2.591   3.511  0.00  0.00    +2.690 S 
ATOM      2  O   LIG    1       -2.542   2.870   4.862  0.00  0.00    -0.950 OA
ATOM      3  O   LIG    1       -3.088   1.961   2.599  0.00  0.00    -0.930 OA
ENDROOT
BRANCH   1   8
ATOM      4  C   LIG    1        0.937   0.439   4.816  0.00  0.00    +0.080 A 
ATOM      5  C   LIG    1        1.536   0.026   3.636  0.00  0.00    +0.030 A 
ATOM      6  C   LIG    1        0.991   0.392   2.420  0.00  0.00    -0.050 A 
ATOM      7  C   LIG    1       -0.148   1.182   2.380  0.00  0.00    +0.190 A 
ATOM      8  C   LIG    1       -0.748   1.595   3.561  0.00  0.00    -0.670 A 
ATOM      9  C   LIG    1       -0.206   1.224   4.777  0.00  0.00    +0.150 A 
BRANCH   4  11
ATOM     10  C   LIG    1        2.647  -0.734   5.979  0.00  0.00    +0.240 C 
ATOM     11  O   LIG    1        1.470   0.075   6.013  0.00  0.00    -0.310 OA
ENDBRANCH   4  11
BRANCH   7  12
ATOM     12  O   LIG    1       -0.682   1.547   1.184  0.00  0.00    -0.310 OA
ATOM     13  C   LIG    1       -0.013   1.086   0.008  0.00  0.00    +0.250 C 
ENDBRANCH   7  12
ENDBRANCH   1   8
BRANCH   1  14
ATOM     14  N   LIG    1       -1.777   4.039   2.827  0.00  0.00    -0.980 NA
BRANCH  14  15
ATOM     15  C   LIG    1       -1.867   4.218   1.376  0.00  0.00    +0.400 C 
BRANCH  15  16
ATOM     16  C   LIG    1       -3.191   4.850   1.029  0.00  0.00    -0.210 A 
ATOM     17  C   LIG    1       -3.418   6.162   0.945  0.00  0.00    +0.020 A 
ATOM     18  C   LIG    1       -4.715   6.509   0.610  0.00  0.00    +0.000 A 
ATOM     19  C   LIG    1       -5.541   5.479   0.421  0.00  0.00    -0.060 A 
ATOM     20  S   LIG    1       -4.670   3.971   0.664  0.00  0.00    +0.150 S 
ENDBRANCH  15  16
ENDBRANCH  14  15
BRANCH  14  21
ATOM     21  C   LIG    1       -1.313   5.141   3.673  0.00  0.00    +0.420 C 
BRANCH  21  22
ATOM     22  C   LIG    1        0.193   5.136   3.724  0.00  0.00    -0.040 A 
ATOM     23  C   LIG    1        1.011   5.789   2.879  0.00  0.00    -0.040 A 
ATOM     24  C   LIG    1        2.334   5.508   3.291  0.00  0.00    -0.070 A 
ATOM     25  C   LIG    1        2.245   4.700   4.363  0.00  0.00    +0.170 A 
ATOM     26  O   LIG    1        0.946   4.483   4.625  0.00  0.00    -0.170 OA
ENDBRANCH  21  22
ENDBRANCH  14  21
ENDBRANCH   1  14
TORSDOF 8
