REMARK  Name = ZINCqH00000513ie.0
REMARK                            x       y       z     vdW  Elec       q    Type
REMARK                         _______ _______ _______ _____ _____    ______ ____
ROOT
ATOM      1  C   LIG    1        5.621  -0.669  -1.464  0.00  0.00    +0.470 C 
ATOM      2  O   LIG    1        5.645  -1.873  -1.361  0.00  0.00    -0.480 OA
ENDROOT
BRANCH   1   3
ATOM      3  O   LIG    1        4.673   0.039  -0.830  0.00  0.00    -0.320 OA
BRANCH   3   4
ATOM      4  C   LIG    1        3.711  -0.707  -0.038  0.00  0.00    +0.240 C 
BRANCH   4   5
ATOM      5  C   LIG    1        2.396   0.029  -0.022  0.00  0.00    -0.100 A 
ATOM      6  C   LIG    1        1.208  -0.679  -0.013  0.00  0.00    +0.020 A 
ATOM      7  C   LIG    1        0.002  -0.004   0.002  0.00  0.00    +0.010 A 
ATOM      8  C   LIG    1       -0.017   1.378   0.010  0.00  0.00    +0.020 A 
ATOM      9  C   LIG    1        1.171   2.086   0.002  0.00  0.00    +0.010 A 
ATOM     10  C   LIG    1        2.377   1.411  -0.015  0.00  0.00    +0.050 A 
ENDBRANCH   4   5
BRANCH   4  14
ATOM     11  N   LIG    1        3.543  -1.597   2.264  0.00  0.00    -0.840 N 
ATOM     12  H   LIG    1        3.873  -1.689   3.171  0.00  0.00    +0.410 HD
ATOM     13  H   LIG    1        2.722  -2.041   1.998  0.00  0.00    +0.400 HD
ATOM     14  C   LIG    1        4.224  -0.851   1.371  0.00  0.00    +0.510 C 
ATOM     15  O   LIG    1        5.250  -0.296   1.703  0.00  0.00    -0.520 OA
ENDBRANCH   4  14
ENDBRANCH   3   4
ENDBRANCH   1   3
BRANCH   1  16
ATOM     16  C   LIG    1        6.654   0.037  -2.304  0.00  0.00    +0.220 C 
BRANCH  16  17
ATOM     17  C   LIG    1        7.594  -0.978  -2.902  0.00  0.00    +0.080 A 
ATOM     18  C   LIG    1        7.814  -1.053  -4.219  0.00  0.00    -0.050 A 
ATOM     19  S   LIG    1        8.965  -2.355  -4.512  0.00  0.00    +0.110 S 
ATOM     20  C   LIG    1        9.036  -2.676  -2.781  0.00  0.00    +0.120 A 
ATOM     21  N   LIG    1        8.252  -1.840  -2.161  0.00  0.00    -0.440 NA
BRANCH  20  22
ATOM     22  C   LIG    1        9.857  -3.722  -2.135  0.00  0.00    -0.010 A 
ATOM     23  C   LIG    1       10.664  -4.557  -2.909  0.00  0.00    +0.040 A 
ATOM     24  C   LIG    1       11.428  -5.532  -2.300  0.00  0.00    +0.040 A 
ATOM     25  C   LIG    1       11.395  -5.683  -0.926  0.00  0.00    +0.050 A 
ATOM     26  C   LIG    1       10.596  -4.858  -0.151  0.00  0.00    -0.040 A 
ATOM     27 CL   LIG    1       10.563  -5.055   1.573  0.00  0.00    -0.060 Cl
ATOM     28  C   LIG    1        9.832  -3.875  -0.748  0.00  0.00    +0.090 A 
ENDBRANCH  20  22
ENDBRANCH  16  17
ENDBRANCH   1  16
TORSDOF 7
