REMARK  Name = ZINCc70000002u1X.0
REMARK                            x       y       z     vdW  Elec       q    Type
REMARK                         _______ _______ _______ _____ _____    ______ ____
ROOT
ATOM      1  C   LIG    1        2.351   1.166  -0.735  0.00  0.00    +0.280 C 
ENDROOT
BRANCH   1   2
ATOM      2  C   LIG    1        3.646   1.937  -0.744  0.00  0.00    +0.440 C 
ATOM      3  O   LIG    1        4.108   2.330  -1.788  0.00  0.00    -0.500 OA
BRANCH   2   4
ATOM      4  O   LIG    1        4.285   2.188   0.410  0.00  0.00    -0.350 OA
BRANCH   4   6
ATOM      5  C   LIG    1        6.106   3.122   1.730  0.00  0.00    +0.070 C 
ATOM      6  C   LIG    1        5.527   2.936   0.326  0.00  0.00    +0.200 C 
ENDBRANCH   4   6
ENDBRANCH   2   4
ENDBRANCH   1   2
BRANCH   1   7
ATOM      7  C   LIG    1        1.280   1.975   0.000  0.00  0.00    -0.060 C 
ATOM      8  C   LIG    1        1.732   2.228   1.440  0.00  0.00    +0.080 C 
BRANCH   7   9
ATOM      9  C   LIG    1       -0.014   1.203   0.009  0.00  0.00    +0.370 C 
ATOM     10  O   LIG    1        0.002  -0.004   0.002  0.00  0.00    -0.440 OA
ATOM     11  C   LIG    1       -1.329   1.939   0.019  0.00  0.00    +0.070 C 
ENDBRANCH   7   9
ENDBRANCH   1   7
BRANCH   1  12
ATOM     12  O   LIG    1        1.929   0.930  -2.080  0.00  0.00    -0.520 OA
ATOM     13  H   LIG    1        1.778   1.736  -2.592  0.00  0.00    +0.380 HD
ENDBRANCH   1  12
TORSDOF 6
