REMARK  Name = ZINCah0000006kNI.0
REMARK                            x       y       z     vdW  Elec       q    Type
REMARK                         _______ _______ _______ _____ _____    ______ ____
ROOT
ATOM      1  C   LIG    1        1.158  -0.587  -0.012  0.00  0.00    +0.050 A 
ATOM      2  N   LIG    1        0.002  -0.004   0.002  0.00  0.00    -0.470 NA
ATOM      3  C   LIG    1       -0.016   1.304   0.009  0.00  0.00    +0.320 A 
ATOM      4  C   LIG    1        1.231   1.875   0.000  0.00  0.00    -0.360 A 
ATOM      5  S   LIG    1        2.416   0.571  -0.018  0.00  0.00    +0.250 S 
ENDROOT
BRANCH   4   6
ATOM      6  C   LIG    1        1.515   3.261   0.005  0.00  0.00    +0.530 C 
ATOM      7  O   LIG    1        2.667   3.645  -0.004  0.00  0.00    -0.460 OA
ENDBRANCH   4   6
BRANCH   1   8
ATOM      8  C   LIG    1        1.367  -2.079  -0.022  0.00  0.00    +0.300 C 
BRANCH   8  10
ATOM      9  C   LIG    1        1.616  -3.954  -1.494  0.00  0.00    +0.220 C 
ATOM     10  O   LIG    1        1.420  -2.544  -1.372  0.00  0.00    -0.380 OA
ENDBRANCH   8  10
ENDBRANCH   1   8
TORSDOF 3
