REMARK  Name = ZINCrH000004rpyb.0
REMARK                            x       y       z     vdW  Elec       q    Type
REMARK                         _______ _______ _______ _____ _____    ______ ____
ROOT
ATOM      1  C   LIG    1        3.623   6.272  -0.216  0.00  0.00    +0.270 C 
ENDROOT
BRANCH   1   2
ATOM      2  N   LIG    1        3.334   7.706  -0.303  0.00  0.00    -0.560 N 
ATOM      3  C   LIG    1        2.596   8.276  -1.272  0.00  0.00    +0.580 C 
ATOM      4  C   LIG    1        2.528   9.731  -1.019  0.00  0.00    -0.130 A 
ATOM      5  C   LIG    1        1.923  10.798  -1.662  0.00  0.00    +0.100 A 
ATOM      6  C   LIG    1        2.063  12.079  -1.150  0.00  0.00    +0.050 A 
ATOM      7  C   LIG    1        2.801  12.297  -0.003  0.00  0.00    +0.040 A 
ATOM      8  C   LIG    1        3.412  11.239   0.652  0.00  0.00    +0.100 A 
ATOM      9  C   LIG    1        3.281   9.954   0.152  0.00  0.00    -0.140 A 
ATOM     10  O   LIG    1        2.071   7.693  -2.199  0.00  0.00    -0.450 OA
ATOM     11  C   LIG    1        3.777   8.626   0.573  0.00  0.00    +0.580 C 
ATOM     12  O   LIG    1        4.469   8.404   1.546  0.00  0.00    -0.460 OA
ENDBRANCH   1   2
BRANCH   1  15
ATOM     13  N   LIG    1        2.352   4.162   0.001  0.00  0.00    -0.670 N 
ATOM     14  H   LIG    1        3.199   3.692   0.058  0.00  0.00    +0.410 HD
ATOM     15  C   LIG    1        2.331   5.506  -0.094  0.00  0.00    +0.510 C 
ATOM     16  O   LIG    1        1.273   6.099  -0.081  0.00  0.00    -0.490 OA
BRANCH  13  21
ATOM     17  C   LIG    1       -2.523   1.257   0.057  0.00  0.00    +0.100 C 
ATOM     18  C   LIG    1       -1.228   2.027   0.045  0.00  0.00    -0.130 A 
ATOM     19  C   LIG    1       -1.155   3.265   0.654  0.00  0.00    +0.070 A 
ATOM     20  C   LIG    1        0.030   3.976   0.640  0.00  0.00    +0.020 A 
ATOM     21  C   LIG    1        1.151   3.443   0.017  0.00  0.00    +0.170 A 
ATOM     22  C   LIG    1        1.078   2.197  -0.591  0.00  0.00    -0.030 A 
ATOM     23  C   LIG    1       -0.110   1.490  -0.574  0.00  0.00    +0.120 A 
ATOM     24  F   LIG    1       -0.183   0.277  -1.165  0.00  0.00    -0.130 F 
ENDBRANCH  13  21
ENDBRANCH   1  15
BRANCH   1  25
ATOM     25  C   LIG    1        4.365   5.824  -1.477  0.00  0.00    +0.050 C 
BRANCH  25  26
ATOM     26  C   LIG    1        5.731   6.510  -1.536  0.00  0.00    -0.020 C 
ATOM     27  C   LIG    1        6.421   6.160  -2.856  0.00  0.00    +0.030 C 
ATOM     28  C   LIG    1        6.593   6.029  -0.367  0.00  0.00    +0.020 C 
ENDBRANCH  25  26
ENDBRANCH   1  25
TORSDOF 5
