REMARK  Name = ZINCAx0000000hx0.0
REMARK                            x       y       z     vdW  Elec       q    Type
REMARK                         _______ _______ _______ _____ _____    ______ ____
ROOT
ATOM      1  C   LIG    1        0.147  -7.723   2.649  0.00  0.00    +0.510 C 
ATOM      2  N   LIG    1        0.494  -6.572   3.259  0.00  0.00    -0.670 N 
ATOM      3  H   LIG    1        1.154  -6.580   3.970  0.00  0.00    +0.420 HD
ATOM      4  O   LIG    1       -0.605  -7.702   1.698  0.00  0.00    -0.490 OA
ENDROOT
BRANCH   2   5
ATOM      5  C   LIG    1       -0.097  -5.366   2.865  0.00  0.00    +0.120 A 
ATOM      6  C   LIG    1        0.633  -4.185   2.914  0.00  0.00    +0.050 A 
ATOM      7  C   LIG    1        0.046  -2.997   2.526  0.00  0.00    +0.010 A 
ATOM      8  C   LIG    1       -1.264  -2.982   2.084  0.00  0.00    +0.160 A 
ATOM      9  C   LIG    1       -1.995  -4.155   2.039  0.00  0.00    -0.650 A 
ATOM     10  C   LIG    1       -1.414  -5.347   2.426  0.00  0.00    +0.130 A 
BRANCH   9  11
ATOM     11  S   LIG    1       -3.666  -4.131   1.482  0.00  0.00    +2.690 S 
ATOM     12  O   LIG    1       -3.800  -2.974   0.668  0.00  0.00    -0.920 OA
ATOM     13  O   LIG    1       -3.954  -5.443   1.020  0.00  0.00    -0.950 OA
BRANCH  11  14
ATOM     14  N   LIG    1       -4.622  -3.882   2.810  0.00  0.00    -1.030 N 
ATOM     15  H   LIG    1       -5.239  -4.572   3.100  0.00  0.00    +0.430 HD
BRANCH  14  16
ATOM     16  C   LIG    1       -4.544  -2.700   3.499  0.00  0.00    +0.400 C 
ATOM     17  N   LIG    1       -3.731  -1.793   3.113  0.00  0.00    -0.580 NA
ATOM     18  C   LIG    1       -3.630  -0.519   3.841  0.00  0.00    +0.220 C 
ATOM     19  C   LIG    1       -4.882   0.312   3.556  0.00  0.00    +0.000 C 
ATOM     20  C   LIG    1       -5.997  -0.045   4.524  0.00  0.00    +0.000 C 
ATOM     21  C   LIG    1       -6.509  -1.466   4.350  0.00  0.00    +0.030 C 
ATOM     22  C   LIG    1       -5.420  -2.478   4.713  0.00  0.00    +0.070 C 
ENDBRANCH  14  16
ENDBRANCH  11  14
ENDBRANCH   9  11
ENDBRANCH   2   5
BRANCH   1  23
ATOM     23  C   LIG    1        0.693  -9.035   3.150  0.00  0.00    +0.270 C 
BRANCH  23  24
ATOM     24  O   LIG    1        0.174 -10.118   2.334  0.00  0.00    -0.330 OA
BRANCH  24  25
ATOM     25  C   LIG    1        0.569 -11.367   2.652  0.00  0.00    +0.520 C 
ATOM     26  O   LIG    1        1.325 -11.546   3.586  0.00  0.00    -0.490 OA
BRANCH  25  30
ATOM     27  C   LIG    1       -0.831 -14.681   0.390  0.00  0.00    +0.190 A 
ATOM     28  C   LIG    1        0.032 -14.890   1.455  0.00  0.00    -0.130 A 
ATOM     29  C   LIG    1        0.492 -13.815   2.196  0.00  0.00    +0.200 A 
ATOM     30  C   LIG    1        0.083 -12.514   1.868  0.00  0.00    -0.170 A 
ATOM     31  C   LIG    1       -0.793 -12.311   0.794  0.00  0.00    +0.080 A 
ATOM     32  C   LIG    1       -1.240 -13.389   0.060  0.00  0.00    +0.050 A 
BRANCH  27  34
ATOM     33  C   LIG    1       -0.821 -17.034   0.058  0.00  0.00    +0.250 C 
ATOM     34  O   LIG    1       -1.279 -15.739  -0.334  0.00  0.00    -0.290 OA
ENDBRANCH  27  34
BRANCH  29  35
ATOM     35  O   LIG    1        1.336 -14.020   3.239  0.00  0.00    -0.280 OA
ATOM     36  C   LIG    1        1.710 -15.371   3.516  0.00  0.00    +0.250 C 
ENDBRANCH  29  35
BRANCH  32  37
ATOM     37  O   LIG    1       -2.087 -13.192  -0.987  0.00  0.00    -0.300 OA
ATOM     38  C   LIG    1       -2.466 -11.843  -1.270  0.00  0.00    +0.240 C 
ENDBRANCH  32  37
ENDBRANCH  25  30
ENDBRANCH  24  25
ENDBRANCH  23  24
ENDBRANCH   1  23
TORSDOF 11
