REMARK  Name = ZINCqH0000037ucd.0
REMARK                            x       y       z     vdW  Elec       q    Type
REMARK                         _______ _______ _______ _____ _____    ______ ____
ROOT
ATOM      1  C   LIG    1        1.451   0.286  -1.697  0.00  0.00    +0.500 C 
ATOM      2  N   LIG    1        0.352  -0.394  -1.313  0.00  0.00    -0.670 N 
ATOM      3  H   LIG    1       -0.399   0.078  -0.922  0.00  0.00    +0.410 HD
ATOM      4  O   LIG    1        2.356  -0.292  -2.261  0.00  0.00    -0.490 OA
ENDROOT
BRANCH   1  15
ATOM      5  C   LIG    1        0.475   1.439   0.812  0.00  0.00    +0.090 C 
ATOM      6  C   LIG    1        1.695   2.006   0.083  0.00  0.00    +0.160 C 
ATOM      7  O   LIG    1        2.879   1.341   0.535  0.00  0.00    -0.300 OA
ATOM      8  C   LIG    1        4.002   1.514  -0.216  0.00  0.00    +0.050 A 
ATOM      9  C   LIG    1        5.240   1.213   0.332  0.00  0.00    +0.020 A 
ATOM     10  C   LIG    1        6.388   1.379  -0.419  0.00  0.00    +0.020 A 
ATOM     11  C   LIG    1        6.306   1.846  -1.717  0.00  0.00    +0.020 A 
ATOM     12  C   LIG    1        5.075   2.149  -2.269  0.00  0.00    +0.020 A 
ATOM     13  C   LIG    1        3.920   1.986  -1.521  0.00  0.00    +0.060 A 
ATOM     14  O   LIG    1        2.715   2.295  -2.076  0.00  0.00    -0.280 OA
ATOM     15  C   LIG    1        1.554   1.765  -1.426  0.00  0.00    +0.200 C 
ENDBRANCH   1  15
BRANCH   2  16
ATOM     16  C   LIG    1        0.295  -1.782  -1.480  0.00  0.00    +0.140 A 
ATOM     17  C   LIG    1       -0.364  -2.569  -0.545  0.00  0.00    +0.000 A 
ATOM     18  C   LIG    1       -0.418  -3.939  -0.712  0.00  0.00    +0.030 A 
ATOM     19  C   LIG    1        0.183  -4.527  -1.809  0.00  0.00    +0.020 A 
ATOM     20  C   LIG    1        0.840  -3.747  -2.743  0.00  0.00    -0.070 A 
ATOM     21  C   LIG    1        0.893  -2.376  -2.584  0.00  0.00    +0.040 A 
BRANCH  20  22
ATOM     22  C   LIG    1        1.493  -4.392  -3.938  0.00  0.00    +0.220 C 
BRANCH  22  23
ATOM     23  O   LIG    1        0.554  -4.465  -5.013  0.00  0.00    -0.380 OA
BRANCH  23  24
ATOM     24  C   LIG    1        1.075  -5.064  -6.200  0.00  0.00    +0.190 C 
BRANCH  24  25
ATOM     25  C   LIG    1       -0.011  -5.088  -7.278  0.00  0.00    -0.040 C 
ATOM     26  C   LIG    1       -0.493  -6.457  -7.764  0.00  0.00    +0.020 C 
ATOM     27  C   LIG    1        0.385  -5.589  -8.669  0.00  0.00    +0.030 C 
ENDBRANCH  24  25
ENDBRANCH  23  24
ENDBRANCH  22  23
ENDBRANCH  20  22
ENDBRANCH   2  16
TORSDOF 6
