REMARK  Name = ZINCvU0000000GrB.0
REMARK                            x       y       z     vdW  Elec       q    Type
REMARK                         _______ _______ _______ _____ _____    ______ ____
ROOT
ATOM      1  C   LIG    1        2.045   0.598  -0.007  0.00  0.00    +0.220 A 
ATOM      2  N   LIG    1        1.223  -0.419  -0.006  0.00  0.00    -0.270 NA
ATOM      3  N   LIG    1        0.002  -0.004   0.002  0.00  0.00    -0.230 NA
ATOM      4  C   LIG    1       -0.016   1.299   0.009  0.00  0.00    +0.120 A 
ATOM      5  S   LIG    1       -1.395   2.391   0.035  0.00  0.00    +0.190 S 
ATOM      6  C   LIG    1       -0.588   3.903  -0.364  0.00  0.00    -0.080 A 
ATOM      7  C   LIG    1        0.733   4.060  -0.340  0.00  0.00    +0.240 A 
ATOM      8  N   LIG    1        1.663   3.067  -0.009  0.00  0.00    -0.540 N 
ATOM      9  H   LIG    1        2.573   3.314   0.217  0.00  0.00    +0.440 HD
ATOM     10  N   LIG    1        1.287   1.723  -0.001  0.00  0.00    -0.270 N 
ENDROOT
BRANCH   7  11
ATOM     11  C   LIG    1        1.260   5.385  -0.689  0.00  0.00    +0.020 A 
ATOM     12  C   LIG    1        0.515   6.476  -1.038  0.00  0.00    +0.020 A 
ATOM     13  C   LIG    1        1.414   7.523  -1.288  0.00  0.00    -0.010 A 
ATOM     14  C   LIG    1        2.668   7.029  -1.082  0.00  0.00    +0.050 A 
ATOM     15  O   LIG    1        2.561   5.736  -0.714  0.00  0.00    -0.160 OA
BRANCH  14  16
ATOM     16  C   LIG    1        3.927   7.783  -1.231  0.00  0.00    +0.010 A 
ATOM     17  C   LIG    1        3.900   9.124  -1.621  0.00  0.00    +0.070 A 
ATOM     18  C   LIG    1        5.082   9.826  -1.752  0.00  0.00    -0.020 A 
ATOM     19  C   LIG    1        6.293   9.199  -1.511  0.00  0.00    +0.060 A 
ATOM     20  C   LIG    1        6.327   7.868  -1.130  0.00  0.00    -0.020 A 
ATOM     21 CL   LIG    1        7.851   7.092  -0.830  0.00  0.00    -0.040 Cl
ATOM     22 CL   LIG    1        5.050  11.495  -2.228  0.00  0.00    -0.040 Cl
ATOM     23  C   LIG    1        5.153   7.157  -0.989  0.00  0.00    +0.060 A 
ENDBRANCH  14  16
ENDBRANCH   7  11
BRANCH   1  24
ATOM     24  C   LIG    1        3.551   0.533  -0.013  0.00  0.00    +0.220 C 
BRANCH  24  28
ATOM     25  C   LIG    1        4.958   0.483  -4.048  0.00  0.00    +0.140 A 
ATOM     26  C   LIG    1        4.782   1.691  -3.388  0.00  0.00    -0.020 A 
ATOM     27  C   LIG    1        4.326   1.704  -2.084  0.00  0.00    +0.050 A 
ATOM     28  C   LIG    1        4.047   0.515  -1.436  0.00  0.00    -0.130 A 
ATOM     29  C   LIG    1        4.228  -0.690  -2.089  0.00  0.00    +0.080 A 
ATOM     30  C   LIG    1        4.677  -0.709  -3.395  0.00  0.00    -0.080 A 
BRANCH  25  32
ATOM     31  C   LIG    1        5.565  -0.812  -5.947  0.00  0.00    +0.250 C 
ATOM     32  O   LIG    1        5.407   0.467  -5.330  0.00  0.00    -0.320 OA
ENDBRANCH  25  32
ENDBRANCH  24  28
ENDBRANCH   1  24
TORSDOF 5
