REMARK  Name = ZINCpk000000ndVz.0
REMARK                            x       y       z     vdW  Elec       q    Type
REMARK                         _______ _______ _______ _____ _____    ______ ____
ROOT
ATOM      1  C   LIG    1        0.002  -0.004   0.002  0.00  0.00    +0.190 A 
ATOM      2  N   LIG    1       -0.016   1.306   0.009  0.00  0.00    -0.460 NA
ATOM      3  C   LIG    1        1.282   1.686  -0.001  0.00  0.00    +0.200 A 
ATOM      4  N   LIG    1        2.004   0.596  -0.014  0.00  0.00    -0.360 NA
ATOM      5  O   LIG    1        1.285  -0.380  -0.012  0.00  0.00    +0.100 OA
ENDROOT
BRANCH   3   6
ATOM      6  C   LIG    1        1.791   3.081   0.001  0.00  0.00    +0.040 A 
ATOM      7  C   LIG    1        0.898   4.151   0.009  0.00  0.00    +0.050 A 
ATOM      8  C   LIG    1        1.377   5.445   0.015  0.00  0.00    +0.130 A 
ATOM      9  C   LIG    1        2.740   5.681   0.004  0.00  0.00    -0.660 A 
ATOM     10  C   LIG    1        3.630   4.623  -0.009  0.00  0.00    +0.130 A 
ATOM     11  C   LIG    1        3.163   3.324  -0.011  0.00  0.00    +0.030 A 
BRANCH   9  12
ATOM     12  S   LIG    1        3.344   7.336   0.006  0.00  0.00    +2.700 S 
ATOM     13  O   LIG    1        4.661   7.282   0.538  0.00  0.00    -0.960 OA
ATOM     14  O   LIG    1        2.313   8.139   0.563  0.00  0.00    -0.960 OA
BRANCH  12  15
ATOM     15  N   LIG    1        3.498   7.804  -1.575  0.00  0.00    -1.250 NA
ATOM     16  H   LIG    1        3.821   8.694  -1.789  0.00  0.00    +0.420 HD
ATOM     17  H   LIG    1        3.266   7.188  -2.288  0.00  0.00    +0.420 HD
ENDBRANCH  12  15
ENDBRANCH   9  12
ENDBRANCH   3   6
BRANCH   1  18
ATOM     18  C   LIG    1       -1.198  -0.916   0.008  0.00  0.00    +0.200 C 
BRANCH  18  19
ATOM     19  C   LIG    1       -1.617  -1.216  -1.432  0.00  0.00    +0.300 C 
BRANCH  19  21
ATOM     20  C   LIG    1       -3.331  -2.504  -2.591  0.00  0.00    +0.650 C 
ATOM     21  N   LIG    1       -2.784  -2.102  -1.426  0.00  0.00    -0.710 N 
ATOM     22  H   LIG    1       -3.163  -2.400  -0.584  0.00  0.00    +0.410 HD
ATOM     23  O   LIG    1       -2.857  -2.131  -3.645  0.00  0.00    -0.560 OA
BRANCH  20  24
ATOM     24  O   LIG    1       -4.404  -3.318  -2.585  0.00  0.00    -0.360 OA
BRANCH  24  26
ATOM     25  C   LIG    1       -3.865  -4.452  -4.672  0.00  0.00    +0.040 C 
ATOM     26  C   LIG    1       -4.940  -3.710  -3.876  0.00  0.00    +0.140 C 
ATOM     27  C   LIG    1       -5.376  -2.462  -4.647  0.00  0.00    +0.040 C 
ATOM     28  C   LIG    1       -6.146  -4.628  -3.670  0.00  0.00    +0.080 C 
ENDBRANCH  24  26
ENDBRANCH  20  24
ENDBRANCH  19  21
ENDBRANCH  18  19
ENDBRANCH   1  18
TORSDOF 8
