REMARK  Name = ZINCpk00000ebNqf.0
REMARK                            x       y       z     vdW  Elec       q    Type
REMARK                         _______ _______ _______ _____ _____    ______ ____
ROOT
ATOM      1  N   LIG    1       -0.145   1.928  -4.754  0.00  0.00    -1.010 NA
ATOM      2  C   LIG    1        1.274   2.316  -4.749  0.00  0.00    +0.300 C 
ATOM      3  C   LIG    1        1.991   1.528  -3.648  0.00  0.00    +0.170 C 
ATOM      4  N   LIG    1        1.289   1.725  -2.373  0.00  0.00    -0.520 NA
ATOM      5  C   LIG    1       -0.079   1.193  -2.430  0.00  0.00    +0.170 C 
ATOM      6  C   LIG    1       -0.881   1.968  -3.481  0.00  0.00    +0.300 C 
ENDROOT
BRANCH   1   8
ATOM      7  O   LIG    1       -2.282   1.688  -5.964  0.00  0.00    -0.970 OA
ATOM      8  S   LIG    1       -0.893   1.457  -6.154  0.00  0.00    +2.780 S 
ATOM      9  O   LIG    1       -0.148   2.032  -7.220  0.00  0.00    -0.970 OA
BRANCH   8  10
ATOM     10  N   LIG    1       -0.704  -0.183  -6.284  0.00  0.00    -1.000 NA
ATOM     11  C   LIG    1        0.455  -0.694  -6.980  0.00  0.00    +0.280 C 
ATOM     12  C   LIG    1        0.140  -0.847  -8.483  0.00  0.00    +0.010 C 
ATOM     13  C   LIG    1       -0.787  -1.968  -8.698  0.00  0.00    +0.000 C 
ATOM     14  C   LIG    1       -2.152  -1.790  -8.041  0.00  0.00    +0.010 C 
ATOM     15  C   LIG    1       -2.080  -2.248  -6.605  0.00  0.00    +0.020 C 
ATOM     16  C   LIG    1       -1.729  -1.062  -5.688  0.00  0.00    +0.260 C 
ENDBRANCH   8  10
ENDBRANCH   1   8
BRANCH   4  17
ATOM     17  C   LIG    1        2.040   1.127  -1.261  0.00  0.00    +0.160 C 
BRANCH  17  18
ATOM     18  C   LIG    1        3.231   2.021  -0.911  0.00  0.00    +0.260 C 
BRANCH  18  19
ATOM     19  C   LIG    1        4.009   1.402   0.222  0.00  0.00    -0.120 A 
ATOM     20  C   LIG    1        3.568   1.548   1.524  0.00  0.00    +0.010 A 
ATOM     21  C   LIG    1        4.279   0.977   2.562  0.00  0.00    +0.000 A 
ATOM     22  C   LIG    1        5.435   0.266   2.300  0.00  0.00    +0.000 A 
ATOM     23  C   LIG    1        5.879   0.124   0.998  0.00  0.00    +0.000 A 
ATOM     24  C   LIG    1        5.165   0.693  -0.041  0.00  0.00    +0.010 A 
ENDBRANCH  18  19
BRANCH  18  25
ATOM     25  O   LIG    1        2.759   3.311  -0.516  0.00  0.00    -0.540 OA
ATOM     26  H   LIG    1        2.177   3.297   0.256  0.00  0.00    +0.370 HD
ENDBRANCH  18  25
ENDBRANCH  17  18
ENDBRANCH   4  17
TORSDOF 6
