REMARK  Name = ZINCrH000004nPRY.0
REMARK                            x       y       z     vdW  Elec       q    Type
REMARK                         _______ _______ _______ _____ _____    ______ ____
ROOT
ATOM      1  C   LIG    1        0.681   7.134  -0.190  0.00  0.00    +0.120 C 
ATOM      2  C   LIG    1        0.474   7.487  -1.665  0.00  0.00    +0.040 C 
ATOM      3  C   LIG    1        1.224   8.780  -1.992  0.00  0.00    +0.030 C 
ATOM      4  C   LIG    1        0.662   9.921  -1.138  0.00  0.00    +0.270 C 
ATOM      5  N   LIG    1        0.725   9.529   0.276  0.00  0.00    -0.610 N 
ATOM      6  C   LIG    1        1.331  10.321   1.183  0.00  0.00    +0.520 C 
ATOM      7  O   LIG    1        1.376   9.986   2.347  0.00  0.00    -0.520 OA
ATOM      8  C   LIG    1        0.113   8.257   0.684  0.00  0.00    +0.300 C 
ENDROOT
BRANCH   1  12
ATOM      9  C   LIG    1       -0.496   3.861   0.700  0.00  0.00    +0.180 A 
ATOM     10  N   LIG    1       -1.586   4.468   0.337  0.00  0.00    -0.380 NA
ATOM     11  O   LIG    1       -1.341   5.607   0.002  0.00  0.00    +0.080 OA
ATOM     12  C   LIG    1       -0.031   5.843   0.123  0.00  0.00    +0.180 A 
ATOM     13  N   LIG    1        0.515   4.739   0.572  0.00  0.00    -0.460 NA
BRANCH   9  14
ATOM     14  C   LIG    1       -0.385   2.438   1.183  0.00  0.00    +0.210 C 
BRANCH  14  15
ATOM     15  C   LIG    1       -0.043   1.525   0.003  0.00  0.00    -0.110 C 
ATOM     16  C   LIG    1       -0.836   0.224  -0.137  0.00  0.00    +0.050 C 
ATOM     17  C   LIG    1       -1.087   1.381  -1.105  0.00  0.00    +0.040 C 
BRANCH  15  18
ATOM     18  C   LIG    1        1.431   1.501  -0.407  0.00  0.00    +0.110 C 
BRANCH  18  20
ATOM     19  C   LIG    1        4.154   1.502   0.398  0.00  0.00    +0.120 C 
ATOM     20  S   LIG    1        2.473   1.535   1.078  0.00  0.00    -0.240 S 
ENDBRANCH  18  20
ENDBRANCH  15  18
ENDBRANCH  14  15
ENDBRANCH   9  14
ENDBRANCH   1  12
BRANCH   6  21
ATOM     21  C   LIG    1        1.954  11.623   0.749  0.00  0.00    +0.100 C 
BRANCH  21  22
ATOM     22  C   LIG    1        2.561  12.313   1.943  0.00  0.00    -0.070 A 
ATOM     23  C   LIG    1        1.804  13.196   2.690  0.00  0.00    +0.010 A 
ATOM     24  C   LIG    1        2.359  13.825   3.789  0.00  0.00    +0.000 A 
ATOM     25  C   LIG    1        3.674  13.578   4.135  0.00  0.00    +0.000 A 
ATOM     26  C   LIG    1        4.433  12.699   3.385  0.00  0.00    +0.000 A 
ATOM     27  C   LIG    1        3.876  12.066   2.289  0.00  0.00    +0.020 A 
ENDBRANCH  21  22
ENDBRANCH   6  21
TORSDOF 7
