REMARK  Name = ZINCtV00000L6jFO.0
REMARK                            x       y       z     vdW  Elec       q    Type
REMARK                         _______ _______ _______ _____ _____    ______ ____
ROOT
ATOM      1  C   LIG    1        1.001   7.552   0.274  0.00  0.00    +0.050 C 
ATOM      2  C   LIG    1        1.302   6.067   0.487  0.00  0.00    -0.050 C 
ATOM      3  C   LIG    1        0.404   5.137  -0.412  0.00  0.00    +0.100 C 
ATOM      4  C   LIG    1        0.789   5.640  -1.840  0.00  0.00    +0.030 C 
ATOM      5  C   LIG    1        2.299   5.962  -1.725  0.00  0.00    +0.020 C 
ATOM      6  C   LIG    1        1.157   3.819  -0.260  0.00  0.00    -0.150 A 
ATOM      7  C   LIG    1        1.055   2.420  -0.192  0.00  0.00    +0.010 A 
ATOM      8  N   LIG    1        2.281   1.950  -0.033  0.00  0.00    -0.260 NA
ATOM      9  N   LIG    1        3.126   2.922  -0.006  0.00  0.00    -0.200 N 
ATOM     10  C   LIG    1        2.481   4.101  -0.139  0.00  0.00    +0.000 A 
ATOM     11  C   LIG    1        1.252   5.675   1.965  0.00  0.00    +0.040 C 
ATOM     12  C   LIG    1        2.644   5.617  -0.241  0.00  0.00    +0.020 C 
ATOM     13  C   LIG    1        3.947   6.206   0.305  0.00  0.00    +0.060 C 
ENDROOT
BRANCH   9  14
ATOM     14  C   LIG    1        4.511   2.777   0.144  0.00  0.00    +0.120 A 
ATOM     15  C   LIG    1        5.378   3.533  -0.633  0.00  0.00    +0.020 A 
ATOM     16  C   LIG    1        6.744   3.391  -0.480  0.00  0.00    +0.040 A 
ATOM     17  C   LIG    1        7.247   2.490   0.440  0.00  0.00    +0.020 A 
ATOM     18  C   LIG    1        6.386   1.732   1.212  0.00  0.00    +0.040 A 
ATOM     19  C   LIG    1        5.020   1.873   1.067  0.00  0.00    +0.030 A 
ENDBRANCH   9  14
BRANCH   7  20
ATOM     20  C   LIG    1       -0.185   1.624  -0.276  0.00  0.00    +0.610 C 
ATOM     21  N   LIG    1       -0.131   0.280  -0.194  0.00  0.00    -0.660 N 
ATOM     22  H   LIG    1        0.728  -0.169  -0.155  0.00  0.00    +0.420 HD
ATOM     23  O   LIG    1       -1.256   2.181  -0.422  0.00  0.00    -0.500 OA
BRANCH  21  24
ATOM     24  C   LIG    1       -1.313  -0.468  -0.167  0.00  0.00    +0.170 A 
ATOM     25  C   LIG    1       -2.446   0.045   0.450  0.00  0.00    +0.020 A 
ATOM     26  C   LIG    1       -3.613  -0.693   0.471  0.00  0.00    +0.070 A 
ATOM     27  C   LIG    1       -3.651  -1.947  -0.112  0.00  0.00    -0.110 A 
ATOM     28  C   LIG    1       -2.521  -2.463  -0.721  0.00  0.00    +0.070 A 
ATOM     29 BR   LIG    1       -5.249  -2.957  -0.075  0.00  0.00    -0.050 Br
ATOM     30  C   LIG    1       -1.353  -1.728  -0.750  0.00  0.00    +0.000 A 
ENDBRANCH  21  24
ENDBRANCH   7  20
TORSDOF 3
