REMARK  Name = ZINCrD00000F5LF4.0
REMARK                            x       y       z     vdW  Elec       q    Type
REMARK                         _______ _______ _______ _____ _____    ______ ____
ROOT
ATOM      1  C   LIG    1        0.305   6.954  -3.672  0.00  0.00    +0.240 A 
ATOM      2  N   LIG    1       -0.940   6.820  -3.335  0.00  0.00    -0.500 NA
ATOM      3  C   LIG    1       -1.184   6.373  -2.117  0.00  0.00    +0.130 A 
ATOM      4  C   LIG    1       -0.094   6.128  -1.387  0.00  0.00    -0.270 A 
ATOM      5  S   LIG    1        1.319   6.497  -2.374  0.00  0.00    +0.250 S 
ENDROOT
BRANCH   1   7
ATOM      6  C   LIG    1        2.071   7.503  -5.155  0.00  0.00    +0.530 C 
ATOM      7  N   LIG    1        0.750   7.402  -4.910  0.00  0.00    -0.620 N 
ATOM      8  H   LIG    1        0.110   7.643  -5.598  0.00  0.00    +0.430 HD
ATOM      9  O   LIG    1        2.872   7.203  -4.295  0.00  0.00    -0.490 OA
BRANCH   6  13
ATOM     10  C   LIG    1        4.577   7.472  -9.138  0.00  0.00    +0.570 C 
ATOM     11  N   LIG    1        3.869   7.461  -7.991  0.00  0.00    -0.650 N 
ATOM     12  C   LIG    1        4.087   8.005  -6.636  0.00  0.00    +0.330 C 
ATOM     13  C   LIG    1        2.554   7.990  -6.497  0.00  0.00    -0.010 C 
ATOM     14  C   LIG    1        2.563   6.901  -7.585  0.00  0.00    +0.320 C 
ATOM     15  O   LIG    1        5.656   8.030  -9.181  0.00  0.00    -0.540 OA
BRANCH  10  17
ATOM     16  C   LIG    1        4.740   6.820 -11.470  0.00  0.00    +0.160 C 
ATOM     17  C   LIG    1        4.042   6.809 -10.338  0.00  0.00    -0.090 C 
ENDBRANCH  10  17
ENDBRANCH   6  13
ENDBRANCH   1   7
BRANCH   3  18
ATOM     18  C   LIG    1       -2.580   6.162  -1.591  0.00  0.00    +0.020 C 
ATOM     19  C   LIG    1       -3.736   6.286  -2.587  0.00  0.00    +0.040 C 
ATOM     20  C   LIG    1       -3.507   7.378  -1.540  0.00  0.00    +0.030 C 
ENDBRANCH   3  18
BRANCH   4  21
ATOM     21  C   LIG    1       -0.074   5.619   0.031  0.00  0.00    +0.190 C 
BRANCH  21  22
ATOM     22  C   LIG    1       -0.054   4.112   0.023  0.00  0.00    -0.090 A 
ATOM     23  C   LIG    1        1.153   3.438   0.009  0.00  0.00    +0.050 A 
ATOM     24  C   LIG    1        1.173   2.056   0.002  0.00  0.00    -0.010 A 
ATOM     25  C   LIG    1       -0.016   1.347   0.009  0.00  0.00    +0.100 A 
ATOM     26  C   LIG    1       -1.224   2.023   0.019  0.00  0.00    -0.010 A 
ATOM     27  F   LIG    1        0.002  -0.004   0.002  0.00  0.00    -0.140 F 
ATOM     28  C   LIG    1       -1.242   3.405   0.031  0.00  0.00    +0.050 A 
ENDBRANCH  21  22
ENDBRANCH   4  21
TORSDOF 6
