REMARK  Name = ZINCqH00000380wD.0
REMARK                            x       y       z     vdW  Elec       q    Type
REMARK                         _______ _______ _______ _____ _____    ______ ____
ROOT
ATOM      1  C   LIG    1       -2.661   0.980   0.051  0.00  0.00    +0.110 C 
ATOM      2  C   LIG    1       -1.312   1.650   0.100  0.00  0.00    -0.090 A 
ATOM      3  C   LIG    1       -0.206   0.942   0.533  0.00  0.00    +0.030 A 
ATOM      4  C   LIG    1        1.033   1.548   0.575  0.00  0.00    +0.030 A 
ATOM      5  C   LIG    1        1.173   2.881   0.185  0.00  0.00    -0.110 A 
ATOM      6  C   LIG    1        0.056   3.597  -0.246  0.00  0.00    +0.080 A 
ATOM      7  C   LIG    1       -1.185   2.979  -0.285  0.00  0.00    +0.140 A 
ENDROOT
BRANCH   5   8
ATOM      8  C   LIG    1        2.499   3.532   0.230  0.00  0.00    +0.560 C 
ATOM      9  N   LIG    1        3.593   2.862  -0.181  0.00  0.00    -0.600 N 
ATOM     10  C   LIG    1        3.500   1.452  -0.585  0.00  0.00    +0.260 C 
ATOM     11  C   LIG    1        4.103   1.304  -1.990  0.00  0.00    -0.030 C 
ATOM     12  C   LIG    1        5.527   1.864  -1.989  0.00  0.00    +0.030 C 
ATOM     13  C   LIG    1        5.492   3.352  -1.634  0.00  0.00    -0.030 C 
ATOM     14  C   LIG    1        4.622   4.099  -2.647  0.00  0.00    +0.020 C 
ATOM     15  C   LIG    1        4.136  -0.175  -2.377  0.00  0.00    +0.030 C 
ATOM     16  C   LIG    1        4.904   3.525  -0.230  0.00  0.00    +0.280 C 
ATOM     17  O   LIG    1        2.603   4.673   0.638  0.00  0.00    -0.530 OA
ENDBRANCH   5   8
BRANCH   7  18
ATOM     18  N   LIG    1       -2.308   3.693  -0.718  0.00  0.00    -0.670 N 
ATOM     19  H   LIG    1       -3.178   3.510  -0.329  0.00  0.00    +0.410 HD
ATOM     20  C   LIG    1       -2.181   4.634  -1.674  0.00  0.00    +0.570 C 
ATOM     21  O   LIG    1       -1.111   4.798  -2.228  0.00  0.00    -0.510 OA
BRANCH  20  22
ATOM     22  C   LIG    1       -3.343   5.466  -2.050  0.00  0.00    -0.190 A 
ATOM     23  C   LIG    1       -3.223   6.451  -3.038  0.00  0.00    +0.140 A 
ATOM     24  C   LIG    1       -4.343   7.200  -3.357  0.00  0.00    -0.030 A 
ATOM     25  C   LIG    1       -5.529   6.962  -2.688  0.00  0.00    +0.300 A 
ATOM     26  N   LIG    1       -5.612   6.030  -1.757  0.00  0.00    -0.480 NA
ATOM     27  C   LIG    1       -4.577   5.288  -1.423  0.00  0.00    +0.300 A 
ENDBRANCH  20  22
ENDBRANCH   7  18
TORSDOF 3
