REMARK  Name = ZINCqH0000004OVV.0
REMARK                            x       y       z     vdW  Elec       q    Type
REMARK                         _______ _______ _______ _____ _____    ______ ____
ROOT
ATOM      1  N   LIG    1        4.463   0.300  -0.038  0.00  0.00    -0.540 N 
ATOM      2  C   LIG    1        3.900  -0.935  -0.039  0.00  0.00    +0.590 A 
ATOM      3  N   LIG    1        2.611  -1.101  -0.028  0.00  0.00    -0.490 NA
ATOM      4  C   LIG    1        1.760  -0.052  -0.015  0.00  0.00    +0.070 A 
ATOM      5  C   LIG    1        2.268   1.242  -0.013  0.00  0.00    -0.220 A 
ATOM      6  C   LIG    1        1.215   2.247   0.003  0.00  0.00    +0.010 A 
ATOM      7  C   LIG    1       -0.022   1.749   0.012  0.00  0.00    -0.040 A 
ATOM      8  S   LIG    1        0.002  -0.004   0.002  0.00  0.00    +0.220 S 
ATOM      9  C   LIG    1        3.687   1.401  -0.024  0.00  0.00    +0.550 A 
ATOM     10  O   LIG    1        4.187   2.513  -0.023  0.00  0.00    -0.480 OA
ENDROOT
BRANCH   6  11
ATOM     11  C   LIG    1        1.494   3.703   0.007  0.00  0.00    -0.040 A 
ATOM     12  C   LIG    1        2.396   4.239   0.924  0.00  0.00    +0.060 A 
ATOM     13  C   LIG    1        2.652   5.596   0.924  0.00  0.00    +0.000 A 
ATOM     14  C   LIG    1        2.015   6.422   0.015  0.00  0.00    -0.080 A 
ATOM     15  C   LIG    1        1.119   5.895  -0.898  0.00  0.00    -0.090 A 
ATOM     16  C   LIG    1        0.430   6.802  -1.885  0.00  0.00    +0.080 C 
ATOM     17  C   LIG    1        2.299   7.902   0.020  0.00  0.00    +0.090 C 
ATOM     18  C   LIG    1        0.860   4.540  -0.910  0.00  0.00    +0.020 A 
ENDBRANCH   6  11
BRANCH   1  19
ATOM     19  C   LIG    1        5.922   0.436  -0.050  0.00  0.00    +0.480 C 
BRANCH  19  23
ATOM     20  C   LIG    1        7.133  -0.058  -3.425  0.00  0.00    +0.180 A 
ATOM     21  N   LIG    1        6.994   1.236  -3.364  0.00  0.00    -0.290 NA
ATOM     22  N   LIG    1        6.556   1.563  -2.199  0.00  0.00    -0.240 NA
ATOM     23  C   LIG    1        6.409   0.491  -1.475  0.00  0.00    +0.120 A 
ATOM     24  O   LIG    1        6.767  -0.559  -2.233  0.00  0.00    -0.220 OA
BRANCH  20  26
ATOM     25  C   LIG    1        9.138  -0.991  -4.548  0.00  0.00    +0.060 C 
ATOM     26  C   LIG    1        7.616  -0.847  -4.614  0.00  0.00    +0.180 C 
ENDBRANCH  20  26
ENDBRANCH  19  23
ENDBRANCH   1  19
TORSDOF 4
