REMARK  Name = ZINCrD00000F5LDH.0
REMARK                            x       y       z     vdW  Elec       q    Type
REMARK                         _______ _______ _______ _____ _____    ______ ____
ROOT
ATOM      1  C   LIG    1       -1.473  -1.847  -0.602  0.00  0.00    +0.530 C 
ATOM      2  N   LIG    1       -1.027  -0.600  -0.853  0.00  0.00    -0.720 N 
ATOM      3  H   LIG    1       -1.388  -0.098  -1.600  0.00  0.00    +0.400 HD
ATOM      4  O   LIG    1       -1.022  -2.475   0.333  0.00  0.00    -0.520 OA
ENDROOT
BRANCH   2   5
ATOM      5  C   LIG    1        0.002  -0.004   0.002  0.00  0.00    +0.250 C 
ATOM      6  C   LIG    1        1.381   0.097  -0.670  0.00  0.00    +0.050 C 
ATOM      7  C   LIG    1        1.518   1.476  -0.004  0.00  0.00    +0.080 C 
ATOM      8  C   LIG    1       -0.019   1.534   0.011  0.00  0.00    +0.050 C 
BRANCH   7   9
ATOM      9  C   LIG    1        2.152   2.515  -0.893  0.00  0.00    +0.190 A 
ATOM     10  N   LIG    1        1.973   2.649  -2.181  0.00  0.00    -0.290 NA
ATOM     11  N   LIG    1        2.665   3.645  -2.614  0.00  0.00    -0.290 NA
ATOM     12  C   LIG    1        3.310   4.191  -1.623  0.00  0.00    +0.180 A 
ATOM     13  C   LIG    1        4.220   5.391  -1.679  0.00  0.00    +0.150 C 
ATOM     14  C   LIG    1        5.508   5.079  -0.911  0.00  0.00    +0.020 C 
ATOM     15  C   LIG    1        5.327   5.443   0.560  0.00  0.00    +0.010 C 
ATOM     16  C   LIG    1        3.882   5.202   0.997  0.00  0.00    +0.030 C 
ATOM     17  C   LIG    1        3.535   3.719   0.839  0.00  0.00    +0.290 C 
ATOM     18  N   LIG    1        3.008   3.487  -0.507  0.00  0.00    -0.470 N 
ENDBRANCH   7   9
ENDBRANCH   2   5
BRANCH   1  20
ATOM     19  C   LIG    1       -3.796  -1.599  -1.434  0.00  0.00    +0.070 C 
ATOM     20  C   LIG    1       -2.532  -2.460  -1.481  0.00  0.00    +0.050 C 
BRANCH  20  21
ATOM     21  C   LIG    1       -2.851  -3.849  -0.990  0.00  0.00    +0.200 A 
ATOM     22  N   LIG    1       -3.311  -4.016   0.235  0.00  0.00    -0.470 NA
ATOM     23  C   LIG    1       -3.605  -5.214   0.708  0.00  0.00    +0.320 A 
ATOM     24  C   LIG    1       -3.438  -6.345  -0.074  0.00  0.00    -0.020 A 
ATOM     25  C   LIG    1       -2.957  -6.206  -1.366  0.00  0.00    +0.130 A 
ATOM     26  F   LIG    1       -4.073  -5.338   1.970  0.00  0.00    -0.100 F 
ATOM     27  C   LIG    1       -2.664  -4.931  -1.829  0.00  0.00    -0.100 A 
ATOM     28 CL   LIG    1       -2.065  -4.698  -3.442  0.00  0.00    -0.040 Cl
ENDBRANCH  20  21
ENDBRANCH   1  20
TORSDOF 4
