REMARK  Name = ZINCrD000000AKs1.0
REMARK                            x       y       z     vdW  Elec       q    Type
REMARK                         _______ _______ _______ _____ _____    ______ ____
ROOT
ATOM      1  O   LIG    1       -1.698  -0.368  -0.972  0.00  0.00    -0.510 OA
ATOM      2  C   LIG    1       -2.580   0.038  -0.245  0.00  0.00    +0.530 C 
ATOM      3  N   LIG    1       -2.467   1.245   0.343  0.00  0.00    -0.710 N 
ATOM      4  H   LIG    1       -3.137   1.539   0.980  0.00  0.00    +0.400 HD
ENDROOT
BRANCH   2   5
ATOM      5  C   LIG    1       -3.803  -0.808  -0.001  0.00  0.00    +0.000 C 
ATOM      6  C   LIG    1       -5.059  -0.161  -0.630  0.00  0.00    +0.080 C 
ATOM      7  C   LIG    1       -5.861  -1.334  -1.148  0.00  0.00    +0.520 C 
ATOM      8  N   LIG    1       -5.086  -2.431  -1.213  0.00  0.00    -0.610 N 
ATOM      9  O   LIG    1       -7.032  -1.292  -1.460  0.00  0.00    -0.520 OA
ATOM     10  C   LIG    1       -3.716  -2.143  -0.773  0.00  0.00    +0.310 C 
BRANCH   8  11
ATOM     11  C   LIG    1       -5.550  -3.745  -1.664  0.00  0.00    +0.380 C 
BRANCH  11  12
ATOM     12  C   LIG    1       -6.068  -4.528  -0.485  0.00  0.00    +0.100 A 
ATOM     13  C   LIG    1       -7.419  -4.514  -0.196  0.00  0.00    -0.010 A 
ATOM     14  C   LIG    1       -7.885  -5.237   0.891  0.00  0.00    +0.060 A 
ATOM     15  C   LIG    1       -6.970  -5.950   1.650  0.00  0.00    -0.030 A 
ATOM     16  C   LIG    1       -5.633  -5.917   1.300  0.00  0.00    +0.260 A 
ATOM     17  N   LIG    1       -5.227  -5.222   0.256  0.00  0.00    -0.470 NA
ENDBRANCH  11  12
ENDBRANCH   8  11
ENDBRANCH   2   5
BRANCH   3  18
ATOM     18  C   LIG    1       -1.332   2.114   0.019  0.00  0.00    +0.190 C 
ATOM     19  C   LIG    1       -1.330   2.612  -1.435  0.00  0.00    +0.040 C 
ATOM     20  C   LIG    1       -2.171   3.803  -0.945  0.00  0.00    +0.020 C 
ATOM     21  C   LIG    1       -1.539   3.579   0.439  0.00  0.00    +0.050 C 
BRANCH  18  22
ATOM     22  C   LIG    1       -0.011   1.540   0.463  0.00  0.00    -0.070 A 
ATOM     23  C   LIG    1        1.069   1.547  -0.399  0.00  0.00    +0.040 A 
ATOM     24  C   LIG    1        2.284   1.026   0.009  0.00  0.00    +0.020 A 
ATOM     25  C   LIG    1        2.417   0.497   1.279  0.00  0.00    +0.040 A 
ATOM     26  C   LIG    1        1.335   0.489   2.141  0.00  0.00    -0.090 A 
ATOM     27 BR   LIG    1        1.517  -0.236   3.879  0.00  0.00    -0.050 Br
ATOM     28  C   LIG    1        0.121   1.011   1.733  0.00  0.00    +0.050 A 
ENDBRANCH  18  22
ENDBRANCH   3  18
TORSDOF 5
