REMARK  Name = ZINCrD000000AIfk.0
REMARK                            x       y       z     vdW  Elec       q    Type
REMARK                         _______ _______ _______ _____ _____    ______ ____
ROOT
ATOM      1  O   LIG    1        2.073  -0.257  -0.342  0.00  0.00    -0.540 OA
ATOM      2  C   LIG    1        3.020   0.497  -0.456  0.00  0.00    +0.750 C 
ATOM      3  N   LIG    1        4.272   0.045  -0.246  0.00  0.00    -0.650 N 
ATOM      4  C   LIG    1        5.618   0.641  -0.201  0.00  0.00    +0.280 C 
ATOM      5  C   LIG    1        6.167  -0.725  -0.596  0.00  0.00    -0.120 C 
ATOM      6  C   LIG    1        7.550  -1.198  -0.158  0.00  0.00    +0.050 C 
ATOM      7  C   LIG    1        7.562  -2.058  -1.436  0.00  0.00    +0.020 C 
ATOM      8  C   LIG    1        6.557  -1.055  -2.034  0.00  0.00    +0.050 C 
ATOM      9  C   LIG    1        4.890  -1.260   0.045  0.00  0.00    +0.290 C 
ATOM     10  N   LIG    1        2.817   1.787  -0.792  0.00  0.00    -0.640 N 
ATOM     11  H   LIG    1        3.572   2.389  -0.883  0.00  0.00    +0.410 HD
ENDROOT
BRANCH   9  12
ATOM     12  C   LIG    1        4.258  -2.421  -0.727  0.00  0.00    -0.010 C 
ATOM     13  C   LIG    1        2.819  -2.633  -0.245  0.00  0.00    +0.000 C 
ATOM     14  C   LIG    1        2.223  -3.846  -0.964  0.00  0.00    +0.190 C 
ATOM     15  O   LIG    1        3.037  -4.994  -0.718  0.00  0.00    -0.390 OA
ATOM     16  C   LIG    1        4.380  -4.870  -1.191  0.00  0.00    +0.200 C 
ATOM     17  C   LIG    1        5.064  -3.700  -0.480  0.00  0.00    -0.010 C 
ENDBRANCH   9  12
BRANCH  10  18
ATOM     18  C   LIG    1        1.521   2.255  -1.009  0.00  0.00    +0.260 A 
ATOM     19  N   LIG    1        1.171   3.471  -1.339  0.00  0.00    -0.390 NA
ATOM     20  O   LIG    1       -0.029   3.569  -1.457  0.00  0.00    +0.100 OA
ATOM     21  C   LIG    1       -0.648   2.404  -1.221  0.00  0.00    -0.010 A 
ATOM     22  C   LIG    1        0.317   1.507  -0.917  0.00  0.00    -0.030 A 
BRANCH  21  23
ATOM     23  C   LIG    1       -2.132   2.145  -1.280  0.00  0.00    +0.100 C 
ATOM     24  C   LIG    1       -2.649   2.449  -2.689  0.00  0.00    +0.010 C 
ATOM     25  C   LIG    1       -4.169   2.261  -2.718  0.00  0.00    +0.210 C 
ATOM     26  O   LIG    1       -4.772   3.110  -1.739  0.00  0.00    -0.380 OA
ATOM     27  C   LIG    1       -4.362   2.838  -0.398  0.00  0.00    +0.210 C 
ATOM     28  C   LIG    1       -2.850   3.051  -0.276  0.00  0.00    +0.010 C 
ENDBRANCH  21  23
ENDBRANCH  10  18
TORSDOF 3
