REMARK  Name = ZINCvU0000000Deu.0
REMARK                            x       y       z     vdW  Elec       q    Type
REMARK                         _______ _______ _______ _____ _____    ______ ____
ROOT
ATOM      1  C   LIG    1       -2.161   4.313   0.036  0.00  0.00    +0.470 C 
ATOM      2  O   LIG    1       -3.271   3.836   0.038  0.00  0.00    -0.510 OA
ENDROOT
BRANCH   1   3
ATOM      3  O   LIG    1       -1.085   3.510   0.026  0.00  0.00    -0.330 OA
BRANCH   3   4
ATOM      4  C   LIG    1       -1.331   2.079   0.020  0.00  0.00    +0.250 C 
BRANCH   4   7
ATOM      5  N   LIG    1        0.002  -0.004   0.002  0.00  0.00    -0.720 N 
ATOM      6  H   LIG    1       -0.831  -0.500   0.007  0.00  0.00    +0.400 HD
ATOM      7  C   LIG    1       -0.016   1.344   0.009  0.00  0.00    +0.520 C 
ATOM      8  O   LIG    1        1.026   1.964   0.003  0.00  0.00    -0.510 OA
BRANCH   5  16
ATOM      9  C   LIG    1        0.601  -1.981   2.032  0.00  0.00    +0.020 C 
ATOM     10  C   LIG    1        1.093  -2.112   0.590  0.00  0.00    +0.000 C 
ATOM     11  C   LIG    1        0.063  -2.890  -0.232  0.00  0.00    -0.020 C 
ATOM     12  C   LIG    1        0.556  -3.022  -1.674  0.00  0.00    +0.010 C 
ATOM     13  C   LIG    1        0.744  -1.629  -2.278  0.00  0.00    +0.000 C 
ATOM     14  C   LIG    1        1.773  -0.851  -1.456  0.00  0.00    +0.010 C 
ATOM     15  C   LIG    1       -0.124  -4.284   0.372  0.00  0.00    +0.030 C 
ATOM     16  C   LIG    1        1.281  -0.719  -0.014  0.00  0.00    +0.240 C 
ENDBRANCH   5  16
ENDBRANCH   4   7
ENDBRANCH   3   4
ENDBRANCH   1   3
BRANCH   1  17
ATOM     17  C   LIG    1       -1.984   5.810   0.043  0.00  0.00    +0.090 C 
BRANCH  17  18
ATOM     18  C   LIG    1       -3.356   6.486   0.053  0.00  0.00    +0.320 C 
BRANCH  18  19
ATOM     19  N   LIG    1       -3.184   7.941   0.060  0.00  0.00    -0.580 N 
ATOM     20  C   LIG    1       -3.103   8.615   1.284  0.00  0.00    +0.190 A 
ATOM     21  C   LIG    1       -3.892   8.220   2.353  0.00  0.00    -0.020 A 
ATOM     22  C   LIG    1       -3.809   8.892   3.560  0.00  0.00    +0.050 A 
ATOM     23  C   LIG    1       -2.944   9.959   3.707  0.00  0.00    +0.000 A 
ATOM     24  C   LIG    1       -2.139  10.360   2.642  0.00  0.00    +0.080 A 
ATOM     25  C   LIG    1       -2.222   9.692   1.435  0.00  0.00    -0.150 A 
ATOM     26  S   LIG    1       -1.228  10.187   0.063  0.00  0.00    +0.010 S 
ATOM     27  C   LIG    1       -2.237   9.709  -1.303  0.00  0.00    -0.150 A 
ATOM     28  C   LIG    1       -2.167  10.392  -2.503  0.00  0.00    +0.070 A 
ATOM     29  C   LIG    1       -2.964   9.998  -3.566  0.00  0.00    +0.000 A 
ATOM     30  C   LIG    1       -3.826   8.928  -3.426  0.00  0.00    +0.050 A 
ATOM     31  C   LIG    1       -3.901   8.241  -2.226  0.00  0.00    -0.020 A 
ATOM     32  C   LIG    1       -3.109   8.628  -1.157  0.00  0.00    +0.190 A 
ENDBRANCH  18  19
ENDBRANCH  17  18
ENDBRANCH   1  17
TORSDOF 7
