REMARK  Name = ZINCqH0000002pEi.0
REMARK                            x       y       z     vdW  Elec       q    Type
REMARK                         _______ _______ _______ _____ _____    ______ ____
ROOT
ATOM      1  N   LIG    1       -3.849   1.308   0.087  0.00  0.00    -0.590 N 
ATOM      2  C   LIG    1       -4.961   0.982  -0.602  0.00  0.00    +0.580 C 
ATOM      3  O   LIG    1       -5.857   0.369  -0.055  0.00  0.00    -0.520 OA
ENDROOT
BRANCH   2   4
ATOM      4  C   LIG    1       -5.089   1.369  -2.020  0.00  0.00    -0.160 A 
ATOM      5  C   LIG    1       -4.695   0.487  -3.024  0.00  0.00    +0.160 A 
ATOM      6  C   LIG    1       -4.824   0.858  -4.360  0.00  0.00    -0.180 A 
ATOM      7  C   LIG    1       -5.338   2.117  -4.691  0.00  0.00    +0.110 A 
ATOM      8  C   LIG    1       -5.723   2.991  -3.699  0.00  0.00    -0.080 A 
ATOM      9  C   LIG    1       -5.603   2.629  -2.363  0.00  0.00    +0.190 A 
BRANCH   6  10
ATOM     10  C   LIG    1       -4.413  -0.075  -5.428  0.00  0.00    +0.570 C 
ATOM     11  O   LIG    1       -3.966  -1.169  -5.141  0.00  0.00    -0.540 OA
ATOM     12  N   LIG    1       -4.532   0.286  -6.721  0.00  0.00    -0.850 N 
ATOM     13  H   LIG    1       -4.262  -0.327  -7.423  0.00  0.00    +0.410 HD
ATOM     14  H   LIG    1       -4.888   1.159  -6.950  0.00  0.00    +0.400 HD
ENDBRANCH   6  10
BRANCH   9  15
ATOM     15  O   LIG    1       -5.983   3.493  -1.391  0.00  0.00    -0.300 OA
ATOM     16  C   LIG    1       -6.497   4.758  -1.812  0.00  0.00    +0.250 C 
ENDBRANCH   9  15
ENDBRANCH   2   4
BRANCH   1  17
ATOM     17  C   LIG    1       -2.679   1.837  -0.617  0.00  0.00    +0.270 C 
ATOM     18  C   LIG    1       -1.433   1.056  -0.196  0.00  0.00    +0.040 C 
BRANCH  17  19
ATOM     19  C   LIG    1       -2.500   3.293  -0.270  0.00  0.00    -0.100 A 
ATOM     20  C   LIG    1       -1.583   3.666   0.695  0.00  0.00    +0.020 A 
ATOM     21  C   LIG    1       -1.416   5.001   1.010  0.00  0.00    +0.000 A 
ATOM     22  C   LIG    1       -2.172   5.963   0.366  0.00  0.00    +0.010 A 
ATOM     23  C   LIG    1       -3.092   5.590  -0.595  0.00  0.00    +0.000 A 
ATOM     24  C   LIG    1       -3.256   4.255  -0.913  0.00  0.00    +0.020 A 
ENDBRANCH  17  19
ENDBRANCH   1  17
BRANCH   1  25
ATOM     25  C   LIG    1       -3.812   1.132   1.541  0.00  0.00    +0.280 C 
BRANCH  25  26
ATOM     26  C   LIG    1       -4.450   2.347   2.218  0.00  0.00    +0.000 C 
BRANCH  26  28
ATOM     27  C   LIG    1       -5.115   3.345   4.410  0.00  0.00    +0.000 C 
ATOM     28  C   LIG    1       -4.477   2.131   3.733  0.00  0.00    +0.000 C 
ENDBRANCH  26  28
ENDBRANCH  25  26
ENDBRANCH   1  25
TORSDOF 8
