REMARK  Name = ZINCrD000000BDgM.1
REMARK                            x       y       z     vdW  Elec       q    Type
REMARK                         _______ _______ _______ _____ _____    ______ ____
ROOT
ATOM      1  O   LIG    1       -0.544  -0.836   4.936  0.00  0.00    -0.580 OA
ATOM      2  C   LIG    1       -1.534  -1.314   4.417  0.00  0.00    +0.710 C 
ATOM      3  N   LIG    1       -1.762  -2.640   4.494  0.00  0.00    -0.630 N 
ATOM      4  C   LIG    1       -0.882  -3.512   5.288  0.00  0.00    +0.310 C 
ATOM      5  C   LIG    1       -1.759  -4.355   6.227  0.00  0.00    +0.170 C 
ATOM      6  N   LIG    1       -2.780  -5.056   5.437  0.00  0.00    -0.530 NA
ATOM      7  C   LIG    1       -3.687  -4.108   4.777  0.00  0.00    +0.170 C 
ATOM      8  C   LIG    1       -2.893  -3.254   3.783  0.00  0.00    +0.280 C 
ATOM      9  N   LIG    1       -2.404  -0.518   3.764  0.00  0.00    -0.730 N 
ATOM     10  H   LIG    1       -3.154  -0.907   3.288  0.00  0.00    +0.400 HD
ENDROOT
BRANCH   6  11
ATOM     11  C   LIG    1       -3.528  -6.008   6.270  0.00  0.00    +0.170 C 
ATOM     12  C   LIG    1       -3.817  -5.490   7.689  0.00  0.00    -0.030 C 
ATOM     13  C   LIG    1       -3.508  -6.914   8.185  0.00  0.00    +0.010 C 
ATOM     14  C   LIG    1       -2.643  -7.082   6.924  0.00  0.00    +0.030 C 
ENDBRANCH   6  11
BRANCH   9  15
ATOM     15  C   LIG    1       -2.216   0.935   3.774  0.00  0.00    +0.350 C 
BRANCH  15  16
ATOM     16  C   LIG    1       -2.843   1.514   5.017  0.00  0.00    +0.310 A 
ATOM     17  N   LIG    1       -4.045   1.111   5.376  0.00  0.00    -0.510 NA
ATOM     18  C   LIG    1       -4.625   1.593   6.464  0.00  0.00    +0.320 A 
ATOM     19  C   LIG    1       -3.954   2.540   7.222  0.00  0.00    -0.080 A 
ATOM     20  C   LIG    1       -2.693   2.942   6.809  0.00  0.00    +0.320 A 
ATOM     21  N   LIG    1       -2.175   2.412   5.713  0.00  0.00    -0.500 NA
ENDBRANCH  15  16
BRANCH  15  22
ATOM     22  C   LIG    1       -2.881   1.544   2.538  0.00  0.00    +0.040 C 
BRANCH  22  23
ATOM     23  C   LIG    1       -2.163   1.052   1.279  0.00  0.00    -0.010 C 
ATOM     24  C   LIG    1       -0.728   1.583   1.270  0.00  0.00    +0.010 C 
ATOM     25  C   LIG    1       -0.010   1.091   0.012  0.00  0.00    +0.000 C 
ATOM     26  C   LIG    1       -0.749   1.598  -1.228  0.00  0.00    +0.000 C 
ATOM     27  C   LIG    1       -2.184   1.068  -1.219  0.00  0.00    +0.000 C 
ATOM     28  C   LIG    1       -2.902   1.560   0.040  0.00  0.00    +0.010 C 
ENDBRANCH  22  23
ENDBRANCH  15  22
ENDBRANCH   9  15
TORSDOF 5
