REMARK  Name = ZINCrD000003fFkz.0
REMARK                            x       y       z     vdW  Elec       q    Type
REMARK                         _______ _______ _______ _____ _____    ______ ____
ROOT
ATOM      1  C   LIG    1        3.424  -1.604  -0.736  0.00  0.00    +0.240 C 
ATOM      2  C   LIG    1        4.181  -0.465  -0.039  0.00  0.00    +0.300 C 
ATOM      3  N   LIG    1        2.921   0.293  -0.023  0.00  0.00    -0.640 N 
ATOM      4  C   LIG    1        2.572   1.595  -0.013  0.00  0.00    +0.620 C 
ATOM      5  O   LIG    1        3.433   2.455  -0.016  0.00  0.00    -0.540 OA
ATOM      6  C   LIG    1        2.209  -0.993  -0.017  0.00  0.00    +0.270 C 
ENDROOT
BRANCH   4   7
ATOM      7  C   LIG    1        1.149   1.977   0.002  0.00  0.00    -0.240 A 
ATOM      8  C   LIG    1        0.634   3.240   0.013  0.00  0.00    +0.090 A 
ATOM      9  O   LIG    1       -0.700   3.152   0.024  0.00  0.00    -0.160 OA
ATOM     10  C   LIG    1       -1.095   1.869   0.017  0.00  0.00    +0.000 A 
ATOM     11  C   LIG    1       -0.013   1.076   0.008  0.00  0.00    -0.030 A 
BRANCH  10  12
ATOM     12  C   LIG    1       -2.525   1.395   0.020  0.00  0.00    +0.090 C 
ATOM     13  C   LIG    1       -3.241   1.927  -1.224  0.00  0.00    +0.040 C 
ATOM     14  C   LIG    1       -3.231   1.913   1.275  0.00  0.00    +0.040 C 
ENDBRANCH  10  12
BRANCH   8  15
ATOM     15  C   LIG    1        1.433   4.518   0.012  0.00  0.00    +0.090 C 
ATOM     16  C   LIG    1        1.103   5.326   1.268  0.00  0.00    +0.040 C 
ATOM     17  C   LIG    1        1.081   5.339  -1.230  0.00  0.00    +0.040 C 
ENDBRANCH   8  15
ENDBRANCH   4   7
BRANCH   1  19
ATOM     18  C   LIG    1        3.226  -2.598  -2.952  0.00  0.00    +0.620 C 
ATOM     19  N   LIG    1        3.385  -1.493  -2.197  0.00  0.00    -0.700 N 
ATOM     20  H   LIG    1        3.475  -0.625  -2.620  0.00  0.00    +0.410 HD
ATOM     21  O   LIG    1        3.115  -3.688  -2.421  0.00  0.00    -0.510 OA
BRANCH  18  25
ATOM     22  C   LIG    1        3.219  -1.629  -6.430  0.00  0.00    +0.220 A 
ATOM     23  C   LIG    1        3.053  -2.972  -6.579  0.00  0.00    -0.070 A 
ATOM     24  C   LIG    1        3.032  -3.530  -5.297  0.00  0.00    +0.100 A 
ATOM     25  C   LIG    1        3.188  -2.488  -4.409  0.00  0.00    -0.110 A 
ATOM     26  O   LIG    1        3.294  -1.345  -5.123  0.00  0.00    -0.190 OA
BRANCH  22  28
ATOM     27  C   LIG    1        3.467   0.642  -7.071  0.00  0.00    +0.260 C 
ATOM     28  O   LIG    1        3.291  -0.728  -7.438  0.00  0.00    -0.260 OA
ENDBRANCH  22  28
ENDBRANCH  18  25
ENDBRANCH   1  19
TORSDOF 6
