REMARK  Name = ZINCqH0000035RBT.0
REMARK                            x       y       z     vdW  Elec       q    Type
REMARK                         _______ _______ _______ _____ _____    ______ ____
ROOT
ATOM      1  C   LIG    1       -2.006   2.508   3.487  0.00  0.00    +0.570 C 
ATOM      2  N   LIG    1       -2.629   3.015   4.569  0.00  0.00    -0.650 N 
ATOM      3  H   LIG    1       -2.703   3.975   4.681  0.00  0.00    +0.410 HD
ATOM      4  O   LIG    1       -1.914   1.304   3.346  0.00  0.00    -0.480 OA
ENDROOT
BRANCH   1   8
ATOM      5  C   LIG    1       -0.369   5.120   0.564  0.00  0.00    +0.200 A 
ATOM      6  C   LIG    1       -1.008   5.641   1.685  0.00  0.00    -0.110 A 
ATOM      7  C   LIG    1       -1.537   4.799   2.635  0.00  0.00    +0.120 A 
ATOM      8  C   LIG    1       -1.437   3.414   2.474  0.00  0.00    -0.210 A 
ATOM      9  C   LIG    1       -0.787   2.889   1.346  0.00  0.00    +0.230 A 
ATOM     10  C   LIG    1       -0.260   3.747   0.396  0.00  0.00    -0.110 A 
BRANCH   5  12
ATOM     11  C   LIG    1        0.003   7.360  -0.135  0.00  0.00    +0.250 C 
ATOM     12  O   LIG    1        0.149   5.958  -0.369  0.00  0.00    -0.310 OA
ENDBRANCH   5  12
BRANCH   9  13
ATOM     13  O   LIG    1       -0.682   1.547   1.184  0.00  0.00    -0.280 OA
ATOM     14  C   LIG    1       -0.013   1.086   0.008  0.00  0.00    +0.250 C 
ENDBRANCH   9  13
ENDBRANCH   1   8
BRANCH   2  15
ATOM     15  C   LIG    1       -3.168   2.158   5.527  0.00  0.00    +0.310 A 
ATOM     16  C   LIG    1       -3.138   0.797   5.499  0.00  0.00    -0.090 A 
ATOM     17  C   LIG    1       -3.788   0.330   6.645  0.00  0.00    +0.100 A 
ATOM     18  N   LIG    1       -4.195   1.361   7.341  0.00  0.00    -0.280 NA
ATOM     19  C   LIG    1       -3.985  -1.117   7.018  0.00  0.00    +0.160 C 
ATOM     20  N   LIG    1       -3.816   2.529   6.666  0.00  0.00    -0.340 N 
BRANCH  20  21
ATOM     21  C   LIG    1       -4.061   3.843   7.086  0.00  0.00    +0.150 A 
ATOM     22  C   LIG    1       -3.127   4.839   6.836  0.00  0.00    -0.030 A 
ATOM     23  C   LIG    1       -3.374   6.134   7.247  0.00  0.00    +0.040 A 
ATOM     24  C   LIG    1       -4.545   6.437   7.917  0.00  0.00    -0.090 A 
ATOM     25  C   LIG    1       -5.475   5.446   8.172  0.00  0.00    +0.040 A 
ATOM     26  C   LIG    1       -4.809   7.850   8.369  0.00  0.00    +0.090 C 
ATOM     27  C   LIG    1       -5.236   4.150   7.759  0.00  0.00    +0.030 A 
ENDBRANCH  20  21
ENDBRANCH   2  15
TORSDOF 5
