REMARK  Name = ZINCrg000000pWwX.0
REMARK                            x       y       z     vdW  Elec       q    Type
REMARK                         _______ _______ _______ _____ _____    ______ ____
ROOT
ATOM      1  N   LIG    1        4.120   0.120  -1.494  0.00  0.00    -0.250 N 
ATOM      2  N   LIG    1        4.939  -0.334  -0.449  0.00  0.00    +0.010 NA
ATOM      3  N   LIG    1        5.971  -0.924  -0.940  0.00  0.00    -0.200 NA
ATOM      4  C   LIG    1        5.927  -0.900  -2.287  0.00  0.00    +0.040 A 
ATOM      5  C   LIG    1        6.786  -1.387  -3.281  0.00  0.00    +0.110 A 
ATOM      6  C   LIG    1        6.473  -1.211  -4.597  0.00  0.00    +0.110 A 
ATOM      7  C   LIG    1        5.308  -0.553  -4.968  0.00  0.00    -0.630 A 
ATOM      8  C   LIG    1        4.447  -0.066  -4.011  0.00  0.00    +0.170 A 
ATOM      9  C   LIG    1        4.748  -0.235  -2.664  0.00  0.00    +0.080 A 
ENDROOT
BRANCH   7  10
ATOM     10  S   LIG    1        4.929  -0.341  -6.676  0.00  0.00    +2.700 S 
ATOM     11  O   LIG    1        6.165  -0.414  -7.373  0.00  0.00    -0.940 OA
ATOM     12  O   LIG    1        4.056   0.778  -6.757  0.00  0.00    -0.950 OA
BRANCH  10  13
ATOM     13  N   LIG    1        4.045  -1.659  -7.150  0.00  0.00    -1.000 NA
ATOM     14  C   LIG    1        4.725  -2.846  -7.673  0.00  0.00    +0.310 C 
ATOM     15  C   LIG    1        2.584  -1.637  -7.047  0.00  0.00    +0.310 C 
ENDBRANCH  10  13
ENDBRANCH   7  10
BRANCH   1  16
ATOM     16  O   LIG    1        2.892   0.814  -1.367  0.00  0.00    -0.100 OA
BRANCH  16  17
ATOM     17  C   LIG    1        2.489   1.042  -0.015  0.00  0.00    +0.250 C 
BRANCH  17  21
ATOM     18  C   LIG    1       -1.234   3.144   0.030  0.00  0.00    -0.110 A 
ATOM     19  C   LIG    1       -1.217   1.748   0.017  0.00  0.00    +0.090 A 
ATOM     20  C   LIG    1       -0.013   1.076   0.008  0.00  0.00    +0.040 A 
ATOM     21  C   LIG    1        1.177   1.782   0.000  0.00  0.00    -0.070 A 
ATOM     22  C   LIG    1        1.167   3.166   0.007  0.00  0.00    +0.040 A 
ATOM     23  C   LIG    1       -0.030   3.850   0.022  0.00  0.00    +0.090 A 
BRANCH  18  24
ATOM     24  C   LIG    1       -2.521   3.870   0.045  0.00  0.00    +0.510 C 
ATOM     25  O   LIG    1       -2.532   5.085   0.052  0.00  0.00    -0.500 OA
BRANCH  24  27
ATOM     26  C   LIG    1       -4.906   3.964   0.068  0.00  0.00    +0.290 C 
ATOM     27  O   LIG    1       -3.681   3.185   0.053  0.00  0.00    -0.350 OA
ENDBRANCH  24  27
ENDBRANCH  18  24
ENDBRANCH  17  21
ENDBRANCH  16  17
ENDBRANCH   1  16
TORSDOF 7
