REMARK  Name = ZINCpe000000UjJP.0
REMARK                            x       y       z     vdW  Elec       q    Type
REMARK                         _______ _______ _______ _____ _____    ______ ____
ROOT
ATOM      1  N   LIG    1        2.441   6.100  -1.431  0.00  0.00    -0.730 N 
ATOM      2  H   LIG    1        2.710   6.504  -0.591  0.00  0.00    +0.400 HD
ATOM      3  C   LIG    1        2.792   6.674  -2.599  0.00  0.00    +0.520 C 
ATOM      4  O   LIG    1        2.456   6.169  -3.648  0.00  0.00    -0.510 OA
ENDROOT
BRANCH   3   5
ATOM      5  C   LIG    1        3.604   7.944  -2.599  0.00  0.00    +0.180 C 
ATOM      6  C   LIG    1        2.783   9.076  -1.976  0.00  0.00    +0.170 C 
ATOM      7  N   LIG    1        3.549  10.328  -2.049  0.00  0.00    -0.530 NA
ATOM      8  C   LIG    1        3.880  10.655  -3.444  0.00  0.00    +0.160 C 
ATOM      9  C   LIG    1        4.690   9.508  -4.053  0.00  0.00    +0.230 C 
ATOM     10  O   LIG    1        3.943   8.293  -3.944  0.00  0.00    -0.360 OA
BRANCH   7  11
ATOM     11  C   LIG    1        2.818  11.431  -1.409  0.00  0.00    +0.230 C 
BRANCH  11  12
ATOM     12  C   LIG    1        3.725  12.628  -1.284  0.00  0.00    -0.080 A 
ATOM     13  C   LIG    1        4.497  12.795  -0.149  0.00  0.00    +0.020 A 
ATOM     14  C   LIG    1        5.331  13.891  -0.036  0.00  0.00    +0.000 A 
ATOM     15  C   LIG    1        5.387  14.825  -1.054  0.00  0.00    +0.000 A 
ATOM     16  C   LIG    1        4.611  14.661  -2.186  0.00  0.00    +0.000 A 
ATOM     17  C   LIG    1        3.780  13.562  -2.301  0.00  0.00    +0.010 A 
ENDBRANCH  11  12
ENDBRANCH   7  11
ENDBRANCH   3   5
BRANCH   1  18
ATOM     18  C   LIG    1        1.652   4.865  -1.430  0.00  0.00    +0.280 C 
BRANCH  18  19
ATOM     19  C   LIG    1        1.391   4.428   0.013  0.00  0.00    +0.160 C 
BRANCH  19  24
ATOM     20  N   LIG    1        1.068   1.894   0.002  0.00  0.00    -0.470 N 
ATOM     21  C   LIG    1       -0.013   1.076   0.008  0.00  0.00    +0.380 A 
ATOM     22  N   LIG    1       -1.074   1.835   0.017  0.00  0.00    -0.290 NA
ATOM     23  N   LIG    1       -0.722   3.072   0.025  0.00  0.00    -0.280 NA
ATOM     24  C   LIG    1        0.580   3.158   0.013  0.00  0.00    +0.170 A 
BRANCH  20  26
ATOM     25  C   LIG    1        3.015   1.467   1.418  0.00  0.00    +0.040 C 
ATOM     26  C   LIG    1        2.477   1.492  -0.014  0.00  0.00    +0.300 C 
ENDBRANCH  20  26
ENDBRANCH  19  24
ENDBRANCH  18  19
ENDBRANCH   1  18
TORSDOF 7
