REMARK  Name = ZINCrD000000BdNo.0
REMARK                            x       y       z     vdW  Elec       q    Type
REMARK                         _______ _______ _______ _____ _____    ______ ____
ROOT
ATOM      1  O   LIG    1       -3.731  -1.410  -1.468  0.00  0.00    -0.570 OA
ATOM      2  C   LIG    1       -3.014  -0.692  -2.139  0.00  0.00    +0.710 C 
ATOM      3  N   LIG    1       -3.512  -0.070  -3.226  0.00  0.00    -0.600 N 
ATOM      4  N   LIG    1       -1.723  -0.519  -1.796  0.00  0.00    -0.740 N 
ATOM      5  H   LIG    1       -1.132  -0.009  -2.371  0.00  0.00    +0.400 HD
ENDROOT
BRANCH   3   6
ATOM      6  C   LIG    1       -2.626   0.710  -4.093  0.00  0.00    +0.200 C 
ATOM      7  C   LIG    1       -3.262   1.449  -5.273  0.00  0.00    +0.030 C 
ATOM      8  C   LIG    1       -2.408   0.203  -5.520  0.00  0.00    +0.010 C 
ENDBRANCH   3   6
BRANCH   3   9
ATOM      9  C   LIG    1       -4.939  -0.174  -3.540  0.00  0.00    +0.420 C 
BRANCH   9  10
ATOM     10  C   LIG    1       -5.685   0.950  -2.867  0.00  0.00    -0.000 A 
ATOM     11  N   LIG    1       -6.133   0.966  -1.645  0.00  0.00    -0.340 NA
ATOM     12  O   LIG    1       -6.691   2.008  -1.389  0.00  0.00    +0.100 OA
ATOM     13  C   LIG    1       -6.684   2.841  -2.439  0.00  0.00    -0.000 A 
ATOM     14  C   LIG    1       -6.030   2.197  -3.436  0.00  0.00    -0.050 A 
BRANCH  13  15
ATOM     15  C   LIG    1       -7.280   4.224  -2.498  0.00  0.00    +0.050 C 
ATOM     16  C   LIG    1       -7.789   4.830  -1.188  0.00  0.00    +0.040 C 
ATOM     17  C   LIG    1       -8.784   4.356  -2.250  0.00  0.00    +0.050 C 
ENDBRANCH  13  15
ENDBRANCH   9  10
ENDBRANCH   3   9
BRANCH   4  18
ATOM     18  C   LIG    1       -1.211  -1.102  -0.553  0.00  0.00    +0.320 C 
BRANCH  18  19
ATOM     19  C   LIG    1        0.273  -0.759  -0.403  0.00  0.00    +0.150 C 
ATOM     20  C   LIG    1        0.836  -1.448   0.842  0.00  0.00    +0.070 C 
ATOM     21  C   LIG    1        2.208  -0.905   1.148  0.00  0.00    -0.070 A 
ATOM     22  C   LIG    1        3.035  -1.623   1.998  0.00  0.00    +0.000 A 
ATOM     23  C   LIG    1        4.297  -1.152   2.303  0.00  0.00    +0.000 A 
ATOM     24  C   LIG    1        4.737   0.040   1.759  0.00  0.00    +0.000 A 
ATOM     25  C   LIG    1        3.914   0.755   0.910  0.00  0.00    +0.010 A 
ATOM     26  C   LIG    1        2.648   0.282   0.602  0.00  0.00    -0.120 A 
ATOM     27  C   LIG    1        1.785   1.086  -0.336  0.00  0.00    +0.280 C 
ATOM     28  O   LIG    1        0.427   0.656  -0.247  0.00  0.00    -0.370 OA
ENDBRANCH  18  19
ENDBRANCH   4  18
TORSDOF 6
