REMARK  Name = ZINCpk000000n16I.0
REMARK                            x       y       z     vdW  Elec       q    Type
REMARK                         _______ _______ _______ _____ _____    ______ ____
ROOT
ATOM      1  C   LIG    1       -3.568   2.720   3.099  0.00  0.00    +0.410 C 
ATOM      2  O   LIG    1       -3.701   3.043   4.262  0.00  0.00    -0.430 OA
ENDROOT
BRANCH   1   7
ATOM      3  C   LIG    1       -0.134   1.750   2.494  0.00  0.00    -0.260 A 
ATOM      4  C   LIG    1       -0.717   1.577   1.247  0.00  0.00    +0.120 A 
ATOM      5  N   LIG    1       -2.012   1.913   1.329  0.00  0.00    -0.520 N 
ATOM      6  H   LIG    1       -2.646   1.886   0.596  0.00  0.00    +0.420 HD
ATOM      7  C   LIG    1       -2.303   2.299   2.622  0.00  0.00    -0.100 A 
ATOM      8  C   LIG    1       -0.010   1.098   0.005  0.00  0.00    +0.160 C 
ATOM      9  C   LIG    1       -1.147   2.210   3.366  0.00  0.00    -0.000 A 
ATOM     10  C   LIG    1       -0.993   2.539   4.829  0.00  0.00    +0.140 C 
BRANCH   3  12
ATOM     11  C   LIG    1        1.715   0.115   3.228  0.00  0.00    +0.070 C 
ATOM     12  C   LIG    1        1.269   1.502   2.842  0.00  0.00    +0.430 C 
ATOM     13  O   LIG    1        2.070   2.413   2.820  0.00  0.00    -0.450 OA
ENDBRANCH   3  12
ENDBRANCH   1   7
BRANCH   1  14
ATOM     14  C   LIG    1       -4.748   2.768   2.163  0.00  0.00    +0.380 C 
BRANCH  14  15
ATOM     15  N   LIG    1       -5.931   3.232   2.892  0.00  0.00    -0.460 N 
ATOM     16  N   LIG    1       -6.854   2.428   3.572  0.00  0.00    +0.040 NA
ATOM     17  N   LIG    1       -7.728   3.143   4.075  0.00  0.00    +0.030 NA
ATOM     18  N   LIG    1       -7.459   4.484   3.773  0.00  0.00    -0.410 N 
ATOM     19  C   LIG    1       -6.327   4.515   3.037  0.00  0.00    +0.650 A 
ATOM     20  O   LIG    1       -5.775   5.505   2.590  0.00  0.00    -0.510 OA
BRANCH  18  21
ATOM     21  C   LIG    1       -8.223   5.591   4.167  0.00  0.00    +0.160 A 
ATOM     22  C   LIG    1       -7.832   6.872   3.798  0.00  0.00    +0.020 A 
ATOM     23  C   LIG    1       -8.590   7.961   4.183  0.00  0.00    +0.050 A 
ATOM     24  C   LIG    1       -9.730   7.777   4.944  0.00  0.00    +0.010 A 
ATOM     25  C   LIG    1      -10.117   6.504   5.318  0.00  0.00    +0.040 A 
ATOM     26  C   LIG    1       -9.367   5.410   4.931  0.00  0.00    +0.020 A 
ENDBRANCH  18  21
ENDBRANCH  14  15
ENDBRANCH   1  14
TORSDOF 5
