REMARK  Name = ZINCrD000000BaOP.0
REMARK                            x       y       z     vdW  Elec       q    Type
REMARK                         _______ _______ _______ _____ _____    ______ ____
ROOT
ATOM      1  C   LIG    1       -0.726   1.607   1.273  0.00  0.00    -0.030 C 
ATOM      2  C   LIG    1       -2.209   1.221   1.220  0.00  0.00    +0.020 C 
ATOM      3  C   LIG    1       -2.865   1.870  -0.001  0.00  0.00    +0.020 C 
ATOM      4  C   LIG    1       -2.186   1.356  -1.275  0.00  0.00    +0.270 C 
ATOM      5  N   LIG    1       -0.740   1.594  -1.169  0.00  0.00    -0.600 N 
ATOM      6  C   LIG    1       -0.081   2.261  -2.137  0.00  0.00    +0.560 C 
ATOM      7  O   LIG    1        1.089   2.542  -1.991  0.00  0.00    -0.530 OA
ATOM      8  C   LIG    1       -0.026   1.090   0.013  0.00  0.00    +0.290 C 
ENDROOT
BRANCH   6   9
ATOM      9  C   LIG    1       -0.799   2.658  -3.401  0.00  0.00    -0.120 C 
ATOM     10  C   LIG    1       -0.206   3.807  -4.219  0.00  0.00    +0.090 C 
ATOM     11  C   LIG    1       -1.495   4.021  -3.420  0.00  0.00    +0.060 C 
BRANCH   9  12
ATOM     12  C   LIG    1       -1.455   1.532  -4.157  0.00  0.00    -0.040 A 
ATOM     13  C   LIG    1       -2.590   1.772  -4.909  0.00  0.00    +0.010 A 
ATOM     14  C   LIG    1       -3.188   0.740  -5.606  0.00  0.00    +0.020 A 
ATOM     15  C   LIG    1       -2.659  -0.535  -5.544  0.00  0.00    +0.000 A 
ATOM     16  C   LIG    1       -1.527  -0.777  -4.787  0.00  0.00    +0.010 A 
ATOM     17  C   LIG    1       -0.925   0.256  -4.094  0.00  0.00    +0.010 A 
ENDBRANCH   9  12
ENDBRANCH   6   9
BRANCH   1  18
ATOM     18  C   LIG    1       -0.075   0.985   2.510  0.00  0.00    +0.270 C 
BRANCH  18  21
ATOM     19  O   LIG    1        0.625   0.324   5.029  0.00  0.00    -0.530 OA
ATOM     20  C   LIG    1       -0.243   1.169   4.934  0.00  0.00    +0.560 C 
ATOM     21  N   LIG    1       -0.664   1.569   3.718  0.00  0.00    -0.730 N 
ATOM     22  H   LIG    1       -1.358   2.243   3.642  0.00  0.00    +0.400 HD
BRANCH  20  23
ATOM     23  C   LIG    1       -0.838   1.758   6.153  0.00  0.00    -0.140 A 
ATOM     24  C   LIG    1       -1.831   2.733   6.047  0.00  0.00    +0.030 A 
ATOM     25  C   LIG    1       -2.385   3.275   7.188  0.00  0.00    +0.000 A 
ATOM     26  C   LIG    1       -1.950   2.863   8.435  0.00  0.00    +0.040 A 
ATOM     27  C   LIG    1       -0.962   1.901   8.547  0.00  0.00    +0.000 A 
ATOM     28  C   LIG    1       -0.404   1.347   7.414  0.00  0.00    +0.080 A 
ENDBRANCH  20  23
ENDBRANCH  18  21
ENDBRANCH   1  18
TORSDOF 5
