REMARK  Name = ZINCpk00000eb7jx.0
REMARK                            x       y       z     vdW  Elec       q    Type
REMARK                         _______ _______ _______ _____ _____    ______ ____
ROOT
ATOM      1  C   LIG    1        0.270   3.711   0.552  0.00  0.00    -0.010 C 
ATOM      2  C   LIG    1       -0.719   4.178  -0.520  0.00  0.00    +0.020 C 
ATOM      3  C   LIG    1       -1.893   3.197  -0.583  0.00  0.00    +0.030 C 
ATOM      4  C   LIG    1       -1.362   1.792  -0.877  0.00  0.00    +0.180 C 
ATOM      5  N   LIG    1       -0.422   1.392   0.177  0.00  0.00    -0.510 NA
ATOM      6  C   LIG    1        0.738   2.292   0.224  0.00  0.00    +0.200 C 
ENDROOT
BRANCH   5   7
ATOM      7  C   LIG    1        0.002  -0.004   0.002  0.00  0.00    +0.180 C 
ATOM      8  C   LIG    1        1.029  -0.087  -1.129  0.00  0.00    +0.020 C 
BRANCH   7   9
ATOM      9  C   LIG    1        0.622  -0.505   1.281  0.00  0.00    +0.520 C 
ATOM     10  N   LIG    1        0.838  -1.824   1.454  0.00  0.00    -0.640 N 
ATOM     11  H   LIG    1        0.595  -2.451   0.754  0.00  0.00    +0.420 HD
ATOM     12  O   LIG    1        0.925   0.279   2.155  0.00  0.00    -0.450 OA
BRANCH  10  13
ATOM     13  C   LIG    1        1.409  -2.286   2.633  0.00  0.00    +0.540 A 
ATOM     14  N   LIG    1        1.740  -1.416   3.575  0.00  0.00    -0.500 NA
ATOM     15  C   LIG    1        2.281  -1.823   4.711  0.00  0.00    +0.350 A 
ATOM     16  C   LIG    1        2.510  -3.176   4.904  0.00  0.00    -0.110 A 
ATOM     17  C   LIG    1        2.157  -4.058   3.896  0.00  0.00    +0.350 A 
ATOM     18  N   LIG    1        1.615  -3.585   2.786  0.00  0.00    -0.550 NA
ENDBRANCH  10  13
ENDBRANCH   7   9
ENDBRANCH   5   7
BRANCH   1  19
ATOM     19  C   LIG    1        1.476   4.653   0.580  0.00  0.00    +0.330 C 
BRANCH  19  23
ATOM     20  C   LIG    1       -0.192   9.383   0.526  0.00  0.00    +0.190 C 
ATOM     21  C   LIG    1        0.320   8.038   0.973  0.00  0.00    +0.220 A 
ATOM     22  N   LIG    1        0.608   7.035   0.186  0.00  0.00    -0.320 NA
ATOM     23  N   LIG    1        1.045   5.985   1.010  0.00  0.00    -0.370 N 
ATOM     24  C   LIG    1        0.995   6.448   2.271  0.00  0.00    +0.280 A 
ATOM     25  C   LIG    1        1.375   5.681   3.511  0.00  0.00    +0.200 C 
ATOM     26  N   LIG    1        0.558   7.681   2.234  0.00  0.00    -0.540 NA
ENDBRANCH  19  23
ENDBRANCH   1  19
TORSDOF 5
