REMARK  Name = ZINCqH0000000efe.0
REMARK                            x       y       z     vdW  Elec       q    Type
REMARK                         _______ _______ _______ _____ _____    ______ ____
ROOT
ATOM      1  N   LIG    1       -0.876   2.751   1.844  0.00  0.00    -0.510 N 
ATOM      2  C   LIG    1       -0.411   1.549   1.451  0.00  0.00    +0.500 C 
ATOM      3  O   LIG    1       -0.673   0.556   2.096  0.00  0.00    -0.470 OA
ENDROOT
BRANCH   2   4
ATOM      4  C   LIG    1        0.436   1.438   0.209  0.00  0.00    +0.200 C 
ATOM      5  O   LIG    1        0.316   0.122  -0.342  0.00  0.00    -0.280 OA
ATOM      6  C   LIG    1        0.950  -0.880   0.326  0.00  0.00    +0.050 A 
ATOM      7  C   LIG    1        0.593  -2.197   0.074  0.00  0.00    +0.020 A 
ATOM      8  C   LIG    1        1.230  -3.226   0.742  0.00  0.00    +0.010 A 
ATOM      9  C   LIG    1        2.223  -2.947   1.662  0.00  0.00    +0.020 A 
ATOM     10  C   LIG    1        2.582  -1.637   1.918  0.00  0.00    +0.020 A 
ATOM     11  C   LIG    1        1.947  -0.599   1.252  0.00  0.00    +0.060 A 
ATOM     12  O   LIG    1        2.307   0.686   1.519  0.00  0.00    -0.300 OA
ATOM     13  C   LIG    1        1.910   1.677   0.566  0.00  0.00    +0.170 C 
ATOM     14  C   LIG    1        2.075   3.072   1.172  0.00  0.00    +0.080 C 
ENDBRANCH   2   4
BRANCH   1  15
ATOM     15  C   LIG    1       -1.561   2.871   3.048  0.00  0.00    +0.240 A 
ATOM     16  N   LIG    1       -2.047   3.974   3.516  0.00  0.00    -0.500 NA
ATOM     17  C   LIG    1       -2.677   3.923   4.684  0.00  0.00    +0.090 A 
ATOM     18  C   LIG    1       -2.711   2.688   5.214  0.00  0.00    -0.280 A 
ATOM     19  C   LIG    1       -3.356   2.323   6.530  0.00  0.00    +0.120 C 
ATOM     20  C   LIG    1       -3.595   3.608   7.331  0.00  0.00    +0.020 C 
ATOM     21  C   LIG    1       -4.288   4.635   6.430  0.00  0.00    +0.020 C 
ATOM     22  C   LIG    1       -3.303   5.129   5.368  0.00  0.00    +0.120 C 
ATOM     23  S   LIG    1       -1.890   1.582   4.120  0.00  0.00    +0.230 S 
ENDBRANCH   1  15
BRANCH   1  24
ATOM     24  C   LIG    1       -0.661   3.931   1.003  0.00  0.00    +0.330 C 
BRANCH  24  26
ATOM     25  C   LIG    1       -2.483   5.323   0.165  0.00  0.00    +0.060 C 
ATOM     26  C   LIG    1       -1.875   4.163   0.142  0.00  0.00    -0.090 C 
ENDBRANCH  24  26
ENDBRANCH   1  24
TORSDOF 4
