REMARK  Name = ZINCrD00000F5LxG.0
REMARK                            x       y       z     vdW  Elec       q    Type
REMARK                         _______ _______ _______ _____ _____    ______ ____
ROOT
ATOM      1  C   LIG    1       -2.219  -3.029   0.006  0.00  0.00    +0.360 C 
ENDROOT
BRANCH   1   2
ATOM      2  C   LIG    1       -0.994  -2.152  -0.000  0.00  0.00    +0.480 C 
ATOM      3  N   LIG    1       -1.125  -0.810   0.008  0.00  0.00    -0.630 N 
ATOM      4  H   LIG    1       -2.008  -0.409   0.018  0.00  0.00    +0.430 HD
ATOM      5  O   LIG    1        0.111  -2.653  -0.013  0.00  0.00    -0.450 OA
BRANCH   3   6
ATOM      6  C   LIG    1        0.002  -0.004   0.002  0.00  0.00    +0.340 A 
ATOM      7  N   LIG    1        1.215  -0.436  -0.012  0.00  0.00    -0.460 NA
ATOM      8  C   LIG    1        2.209   0.474  -0.017  0.00  0.00    +0.100 A 
ATOM      9  C   LIG    1        3.603   0.259  -0.032  0.00  0.00    +0.110 A 
ATOM     10  C   LIG    1        4.472   1.321  -0.034  0.00  0.00    +0.020 A 
ATOM     11  C   LIG    1        3.993   2.625  -0.022  0.00  0.00    +0.110 A 
ATOM     12  C   LIG    1        2.634   2.859  -0.008  0.00  0.00    +0.040 A 
ATOM     13  F   LIG    1        4.858   3.663  -0.025  0.00  0.00    -0.130 F 
ATOM     14  C   LIG    1        1.740   1.791  -0.005  0.00  0.00    -0.160 A 
ATOM     15  S   LIG    1       -0.022   1.754   0.012  0.00  0.00    +0.090 S 
ENDBRANCH   3   6
ENDBRANCH   1   2
BRANCH   1  17
ATOM     16  C   LIG    1       -1.492  -5.116   1.252  0.00  0.00    +0.310 C 
ATOM     17  N   LIG    1       -1.813  -4.436  -0.005  0.00  0.00    -0.980 NA
BRANCH  17  18
ATOM     18  S   LIG    1       -1.716  -5.259  -1.439  0.00  0.00    +2.680 S 
ATOM     19  O   LIG    1       -2.572  -4.581  -2.349  0.00  0.00    -0.950 OA
ATOM     20  O   LIG    1       -1.855  -6.637  -1.122  0.00  0.00    -0.950 OA
BRANCH  18  21
ATOM     21  C   LIG    1       -0.076  -5.051  -2.050  0.00  0.00    -0.580 C 
ATOM     22  C   LIG    1        0.729  -6.099  -2.156  0.00  0.00    +0.200 C 
BRANCH  22  23
ATOM     23  C   LIG    1        2.104  -5.926  -2.669  0.00  0.00    -0.100 A 
ATOM     24  C   LIG    1        2.557  -4.661  -3.046  0.00  0.00    +0.050 A 
ATOM     25  C   LIG    1        3.844  -4.504  -3.517  0.00  0.00    +0.000 A 
ATOM     26  C   LIG    1        4.681  -5.600  -3.628  0.00  0.00    +0.030 A 
ATOM     27  C   LIG    1        4.237  -6.858  -3.261  0.00  0.00    +0.000 A 
ATOM     28  C   LIG    1        2.954  -7.027  -2.782  0.00  0.00    +0.040 A 
ENDBRANCH  22  23
ENDBRANCH  18  21
ENDBRANCH  17  18
ENDBRANCH   1  17
TORSDOF 6
