REMARK  Name = ZINCpk00000y6yEV.1
REMARK                            x       y       z     vdW  Elec       q    Type
REMARK                         _______ _______ _______ _____ _____    ______ ____
ROOT
ATOM      1  C   LIG    1       -8.289  -0.764   0.149  0.00  0.00    +0.160 C 
ATOM      2  C   LIG    1       -8.759  -2.234   0.146  0.00  0.00    +0.060 C 
ATOM      3  C   LIG    1       -7.611  -2.966  -0.598  0.00  0.00    +0.040 C 
ATOM      4  C   LIG    1       -6.372  -2.170  -0.119  0.00  0.00    +0.260 C 
ATOM      5  N   LIG    1       -6.831  -0.771  -0.036  0.00  0.00    -0.610 N 
ATOM      6  C   LIG    1       -6.043   0.320  -0.112  0.00  0.00    +0.610 C 
ATOM      7  O   LIG    1       -6.541   1.429  -0.130  0.00  0.00    -0.470 OA
ENDROOT
BRANCH   6   8
ATOM      8  C   LIG    1       -4.575   0.168  -0.172  0.00  0.00    -0.000 A 
ATOM      9  N   LIG    1       -3.906  -0.968  -0.160  0.00  0.00    -0.250 NA
ATOM     10  N   LIG    1       -2.642  -0.745  -0.225  0.00  0.00    -0.380 N 
ATOM     11  H   LIG    1       -1.956  -1.430  -0.230  0.00  0.00    +0.450 HD
ATOM     12  C   LIG    1       -2.409   0.597  -0.285  0.00  0.00    +0.060 A 
ATOM     13  C   LIG    1       -3.628   1.213  -0.248  0.00  0.00    +0.010 A 
BRANCH  12  14
ATOM     14  C   LIG    1       -1.088   1.260  -0.368  0.00  0.00    -0.030 A 
ATOM     15  C   LIG    1        0.079   0.496  -0.391  0.00  0.00    +0.000 A 
ATOM     16  C   LIG    1        1.307   1.119  -0.475  0.00  0.00    +0.020 A 
ATOM     17  C   LIG    1        1.383   2.500  -0.530  0.00  0.00    +0.020 A 
ATOM     18  C   LIG    1        0.230   3.263  -0.501  0.00  0.00    +0.020 A 
ATOM     19  C   LIG    1       -1.004   2.651  -0.417  0.00  0.00    +0.040 A 
ENDBRANCH  12  14
ENDBRANCH   6   8
BRANCH   1  23
ATOM     20  C   LIG    1       -8.998   0.729  -3.302  0.00  0.00    +0.280 C 
ATOM     21  N   LIG    1       -8.426  -0.083  -2.225  0.00  0.00    -0.730 N 
ATOM     22  H   LIG    1       -7.674  -0.667  -2.405  0.00  0.00    +0.400 HD
ATOM     23  C   LIG    1       -8.946  -0.017  -0.983  0.00  0.00    +0.530 C 
ATOM     24  O   LIG    1       -9.942   0.643  -0.776  0.00  0.00    -0.520 OA
ENDBRANCH   1  23
BRANCH   1  25
ATOM     25  C   LIG    1       -8.641  -0.105   1.485  0.00  0.00    +0.200 C 
BRANCH  25  26
ATOM     26  O   LIG    1       -8.188   1.250   1.481  0.00  0.00    -0.350 OA
ATOM     27  C   LIG    1       -8.468   1.960   2.689  0.00  0.00    +0.180 C 
ENDBRANCH  25  26
ENDBRANCH   1  25
TORSDOF 5
