REMARK  Name = ZINCpk00000y6yEV.0
REMARK                            x       y       z     vdW  Elec       q    Type
REMARK                         _______ _______ _______ _____ _____    ______ ____
ROOT
ATOM      1  C   LIG    1       -8.353   5.471   0.321  0.00  0.00    +0.160 C 
ATOM      2  C   LIG    1       -8.229   6.973   0.652  0.00  0.00    +0.100 C 
ATOM      3  C   LIG    1       -6.714   7.145   0.938  0.00  0.00    +0.050 C 
ATOM      4  C   LIG    1       -6.092   6.149  -0.072  0.00  0.00    +0.250 C 
ATOM      5  N   LIG    1       -7.022   5.005  -0.096  0.00  0.00    -0.620 N 
ATOM      6  C   LIG    1       -6.706   3.743  -0.447  0.00  0.00    +0.590 C 
ATOM      7  O   LIG    1       -7.571   2.888  -0.486  0.00  0.00    -0.460 OA
ENDROOT
BRANCH   6   8
ATOM      8  C   LIG    1       -5.315   3.399  -0.783  0.00  0.00    -0.040 A 
ATOM      9  C   LIG    1       -4.816   2.138  -1.047  0.00  0.00    +0.040 A 
ATOM     10  C   LIG    1       -3.447   2.328  -1.309  0.00  0.00    +0.070 A 
ATOM     11  N   LIG    1       -3.198   3.616  -1.205  0.00  0.00    -0.260 NA
ATOM     12  N   LIG    1       -4.264   4.264  -0.901  0.00  0.00    -0.380 N 
ATOM     13  H   LIG    1       -4.316   5.224  -0.774  0.00  0.00    +0.440 HD
BRANCH  10  14
ATOM     14  C   LIG    1       -2.463   1.269  -1.647  0.00  0.00    -0.010 A 
ATOM     15  C   LIG    1       -2.868  -0.061  -1.728  0.00  0.00    +0.030 A 
ATOM     16  C   LIG    1       -1.948  -1.043  -2.038  0.00  0.00    +0.010 A 
ATOM     17  C   LIG    1       -0.628  -0.706  -2.277  0.00  0.00    +0.010 A 
ATOM     18  C   LIG    1       -0.221   0.614  -2.202  0.00  0.00    +0.010 A 
ATOM     19  C   LIG    1       -1.132   1.602  -1.888  0.00  0.00    +0.040 A 
ENDBRANCH  10  14
ENDBRANCH   6   8
BRANCH   1  23
ATOM     20  C   LIG    1       -8.465   2.978   3.222  0.00  0.00    +0.280 C 
ATOM     21  N   LIG    1       -8.100   3.643   1.969  0.00  0.00    -0.720 N 
ATOM     22  H   LIG    1       -7.354   3.313   1.444  0.00  0.00    +0.400 HD
ATOM     23  C   LIG    1       -8.800   4.714   1.546  0.00  0.00    +0.530 C 
ATOM     24  O   LIG    1       -9.790   5.069   2.149  0.00  0.00    -0.540 OA
ENDBRANCH   1  23
BRANCH   1  25
ATOM     25  C   LIG    1       -9.356   5.266  -0.816  0.00  0.00    +0.190 C 
BRANCH  25  26
ATOM     26  O   LIG    1       -9.450   3.874  -1.123  0.00  0.00    -0.350 OA
ATOM     27  C   LIG    1      -10.366   3.572  -2.178  0.00  0.00    +0.200 C 
ENDBRANCH  25  26
ENDBRANCH   1  25
TORSDOF 5
