REMARK  Name = ZINCrH000004sPnj.0
REMARK                            x       y       z     vdW  Elec       q    Type
REMARK                         _______ _______ _______ _____ _____    ______ ____
ROOT
ATOM      1  C   LIG    1        1.877  -4.922  -3.132  0.00  0.00    +0.150 A 
ATOM      2  N   LIG    1        0.649  -5.351  -3.312  0.00  0.00    -0.280 NA
ATOM      3  N   LIG    1        0.667  -6.512  -3.862  0.00  0.00    -0.250 NA
ATOM      4  C   LIG    1        1.897  -6.893  -4.067  0.00  0.00    +0.210 A 
ATOM      5  N   LIG    1        2.713  -5.891  -3.614  0.00  0.00    -0.420 N 
ENDROOT
BRANCH   5   6
ATOM      6  C   LIG    1        4.115  -5.865  -3.637  0.00  0.00    +0.100 A 
ATOM      7  C   LIG    1        4.791  -5.848  -4.850  0.00  0.00    +0.030 A 
ATOM      8  C   LIG    1        6.171  -5.817  -4.870  0.00  0.00    +0.040 A 
ATOM      9  C   LIG    1        6.881  -5.814  -3.683  0.00  0.00    +0.040 A 
ATOM     10  C   LIG    1        6.212  -5.836  -2.474  0.00  0.00    +0.040 A 
ATOM     11  C   LIG    1        4.831  -5.862  -2.447  0.00  0.00    +0.030 A 
ENDBRANCH   5   6
BRANCH   4  12
ATOM     12  C   LIG    1        2.337  -8.192  -4.691  0.00  0.00    +0.230 C 
ATOM     13  C   LIG    1        2.123  -9.334  -3.696  0.00  0.00    +0.070 C 
BRANCH  12  14
ATOM     14  N   LIG    1        1.549  -8.445  -5.904  0.00  0.00    -0.520 NA
ATOM     15  C   LIG    1        1.972  -9.691  -6.556  0.00  0.00    +0.160 C 
ATOM     16  C   LIG    1        1.038  -9.997  -7.729  0.00  0.00    +0.020 C 
ATOM     17  C   LIG    1        1.081  -8.836  -8.726  0.00  0.00    +0.010 C 
ATOM     18  C   LIG    1        0.683  -7.543  -8.010  0.00  0.00    +0.040 C 
ATOM     19  C   LIG    1        1.628  -7.307  -6.829  0.00  0.00    +0.160 C 
ENDBRANCH  12  14
ENDBRANCH   4  12
BRANCH   1  20
ATOM     20  S   LIG    1        2.355  -3.386  -2.413  0.00  0.00    +0.060 S 
BRANCH  20  21
ATOM     21  C   LIG    1        0.725  -2.688  -2.050  0.00  0.00    +0.270 C 
BRANCH  21  26
ATOM     22  C   LIG    1        1.228   2.232  -1.264  0.00  0.00    +0.200 C 
ATOM     23  C   LIG    1        1.104   0.744  -1.064  0.00  0.00    +0.170 A 
ATOM     24  N   LIG    1        1.118   0.116   0.074  0.00  0.00    -0.370 NA
ATOM     25  O   LIG    1        0.997  -1.078  -0.103  0.00  0.00    +0.090 OA
ATOM     26  C   LIG    1        0.891  -1.333  -1.410  0.00  0.00    +0.180 A 
ATOM     27  N   LIG    1        0.953  -0.179  -2.030  0.00  0.00    -0.460 NA
ENDBRANCH  21  26
ENDBRANCH  20  21
ENDBRANCH   1  20
TORSDOF 6
