REMARK  Name = ZINCb70000002AtU.0
REMARK                            x       y       z     vdW  Elec       q    Type
REMARK                         _______ _______ _______ _____ _____    ______ ____
ROOT
ATOM      1  C   LIG    1        0.586  -0.594  -1.308  0.00  0.00    -0.120 C 
ATOM      2  C   LIG    1       -0.544  -1.169  -2.164  0.00  0.00    +0.060 C 
ATOM      3  C   LIG    1        0.585  -2.079  -1.676  0.00  0.00    +0.050 C 
ENDROOT
BRANCH   1   4
ATOM      4  C   LIG    1        0.257  -0.224   0.140  0.00  0.00    -0.300 C 
BRANCH   4   6
ATOM      5  C   LIG    1       -0.393   1.778   2.013  0.00  0.00    -0.250 C 
ATOM      6  S   LIG    1        0.158   1.581   0.296  0.00  0.00    +2.420 S 
ATOM      7  O   LIG    1       -0.868   2.054  -0.566  0.00  0.00    -0.930 OA
ATOM      8  O   LIG    1        1.468   2.118   0.176  0.00  0.00    -0.940 OA
ENDBRANCH   4   6
ENDBRANCH   1   4
BRANCH   1   9
ATOM      9  C   LIG    1        1.611   0.305  -2.002  0.00  0.00    +0.060 C 
BRANCH   9  10
ATOM     10  C   LIG    1        1.890  -0.230  -3.408  0.00  0.00    +0.270 C 
BRANCH  10  11
ATOM     11  N   LIG    1        2.895   0.618  -4.064  0.00  0.00    -0.640 N 
ATOM     12  H   LIG    1        3.748   0.607  -3.525  0.00  0.00    +0.440 HD
ATOM     13  H   LIG    1        2.548   1.563  -4.127  0.00  0.00    +0.440 HD
ATOM     14  H   LIG    1        3.079   0.265  -4.991  0.00  0.00    +0.440 HD
ENDBRANCH  10  11
ENDBRANCH   9  10
ENDBRANCH   1   9
TORSDOF 5
