REMARK  Name = ZINCpe000000WQIC.0
REMARK                            x       y       z     vdW  Elec       q    Type
REMARK                         _______ _______ _______ _____ _____    ______ ____
ROOT
ATOM      1  C   LIG    1        1.175   6.208  -1.980  0.00  0.00    +0.200 C 
ATOM      2  C   LIG    1        0.605   7.194  -3.000  0.00  0.00    +0.260 C 
ATOM      3  O   LIG    1       -0.402   6.531  -3.772  0.00  0.00    -0.360 OA
ATOM      4  C   LIG    1       -1.568   6.208  -3.009  0.00  0.00    +0.290 C 
ATOM      5  C   LIG    1       -1.168   5.514  -1.737  0.00  0.00    +0.490 C 
ATOM      6  O   LIG    1       -2.013   4.912  -1.109  0.00  0.00    -0.530 OA
ATOM      7  N   LIG    1        0.087   5.537  -1.272  0.00  0.00    -0.580 N 
ENDROOT
BRANCH   1  10
ATOM      8  N   LIG    1        3.348   7.124  -1.234  0.00  0.00    -0.700 N 
ATOM      9  H   LIG    1        3.740   6.772  -2.049  0.00  0.00    +0.410 HD
ATOM     10  C   LIG    1        2.034   6.950  -0.989  0.00  0.00    +0.510 C 
ATOM     11  O   LIG    1        1.544   7.391   0.029  0.00  0.00    -0.520 OA
BRANCH   8  13
ATOM     12  C   LIG    1        4.664   6.878   0.812  0.00  0.00    +0.040 C 
ATOM     13  C   LIG    1        4.184   7.845  -0.271  0.00  0.00    +0.230 C 
BRANCH  13  14
ATOM     14  C   LIG    1        5.393   8.444  -0.993  0.00  0.00    +0.320 C 
BRANCH  14  15
ATOM     15  N   LIG    1        4.939   9.458  -1.947  0.00  0.00    -0.380 N 
ATOM     16  C   LIG    1        5.350  10.742  -1.997  0.00  0.00    +0.220 A 
ATOM     17  C   LIG    1        4.699  11.345  -3.019  0.00  0.00    -0.120 A 
ATOM     18  C   LIG    1        3.854  10.399  -3.608  0.00  0.00    +0.230 A 
ATOM     19  N   LIG    1        3.997   9.267  -2.967  0.00  0.00    -0.290 NA
ENDBRANCH  14  15
ENDBRANCH  13  14
ENDBRANCH   8  13
ENDBRANCH   1  10
BRANCH   7  20
ATOM     20  C   LIG    1        0.380   4.869  -0.002  0.00  0.00    +0.330 C 
BRANCH  20  21
ATOM     21  C   LIG    1        0.637   3.405  -0.252  0.00  0.00    -0.110 A 
ATOM     22  C   LIG    1        1.920   2.964  -0.515  0.00  0.00    +0.000 A 
ATOM     23  C   LIG    1        2.156   1.621  -0.743  0.00  0.00    +0.000 A 
ATOM     24  C   LIG    1        1.108   0.720  -0.710  0.00  0.00    +0.010 A 
ATOM     25  C   LIG    1       -0.176   1.162  -0.453  0.00  0.00    +0.000 A 
ATOM     26  C   LIG    1       -0.411   2.504  -0.219  0.00  0.00    +0.040 A 
ENDBRANCH  20  21
ENDBRANCH   7  20
TORSDOF 6
