REMARK  Name = ZINCrg00000fSfQk.0
REMARK                            x       y       z     vdW  Elec       q    Type
REMARK                         _______ _______ _______ _____ _____    ______ ____
ROOT
ATOM      1  C   LIG    1       -2.434  -0.635   0.022  0.00  0.00    +0.520 C 
ATOM      2  O   LIG    1       -2.765   0.534   0.032  0.00  0.00    -0.480 OA
ENDROOT
BRANCH   1   6
ATOM      3  C   LIG    1        1.189  -4.074  -0.031  0.00  0.00    +0.150 C 
ATOM      4  C   LIG    1        0.756  -2.631  -0.019  0.00  0.00    +0.190 A 
ATOM      5  C   LIG    1       -0.597  -2.332  -0.005  0.00  0.00    +0.010 A 
ATOM      6  C   LIG    1       -1.002  -0.998   0.006  0.00  0.00    -0.000 A 
ATOM      7  C   LIG    1        0.002  -0.004   0.002  0.00  0.00    -0.180 A 
ATOM      8  C   LIG    1       -0.017   1.407   0.010  0.00  0.00    +0.290 A 
ATOM      9  N   LIG    1        1.212   1.839   0.000  0.00  0.00    -0.220 NA
ATOM     10  N   LIG    1        2.095   0.753  -0.014  0.00  0.00    -0.380 N 
ATOM     11  C   LIG    1        1.355  -0.401  -0.013  0.00  0.00    +0.310 A 
ATOM     12  N   LIG    1        1.672  -1.687  -0.023  0.00  0.00    -0.480 NA
BRANCH  10  13
ATOM     13  C   LIG    1        3.558   0.835  -0.027  0.00  0.00    +0.270 C 
ATOM     14  C   LIG    1        4.038   1.577   1.222  0.00  0.00    +0.050 C 
ATOM     15  C   LIG    1        4.015   1.590  -1.276  0.00  0.00    +0.050 C 
ENDBRANCH  10  13
ENDBRANCH   1   6
BRANCH   1  16
ATOM     16  O   LIG    1       -3.374  -1.601   0.025  0.00  0.00    -0.340 OA
BRANCH  16  17
ATOM     17  C   LIG    1       -4.761  -1.171   0.041  0.00  0.00    +0.330 C 
BRANCH  17  18
ATOM     18  C   LIG    1       -5.661  -2.380   0.042  0.00  0.00    +0.180 A 
ATOM     19  C   LIG    1       -5.130  -3.621   0.024  0.00  0.00    -0.080 A 
ATOM     20  C   LIG    1       -5.996  -4.741   0.031  0.00  0.00    +0.550 A 
ATOM     21  N   LIG    1       -7.330  -4.546   0.044  0.00  0.00    -0.560 N 
ATOM     22  C   LIG    1       -7.833  -3.297   0.057  0.00  0.00    +0.700 A 
ATOM     23  O   LIG    1       -9.038  -3.136   0.070  0.00  0.00    -0.530 OA
ATOM     24  C   LIG    1       -8.236  -5.697   0.046  0.00  0.00    +0.350 C 
ATOM     25  O   LIG    1       -5.541  -5.870   0.020  0.00  0.00    -0.510 OA
ATOM     26  N   LIG    1       -7.020  -2.224   0.056  0.00  0.00    -0.530 N 
ATOM     27  C   LIG    1       -7.597  -0.878   0.071  0.00  0.00    +0.340 C 
ENDBRANCH  17  18
ENDBRANCH  16  17
ENDBRANCH   1  16
TORSDOF 5
