REMARK  Name = ZINCrH000004mrPE.0
REMARK                            x       y       z     vdW  Elec       q    Type
REMARK                         _______ _______ _______ _____ _____    ______ ____
ROOT
ATOM      1  C   LIG    1        1.634   4.210  -2.704  0.00  0.00    +0.280 C 
ATOM      2  C   LIG    1        3.017   3.784  -3.240  0.00  0.00    +0.050 C 
ATOM      3  C   LIG    1        2.829   2.271  -3.525  0.00  0.00    +0.040 C 
ATOM      4  C   LIG    1        1.882   1.854  -2.369  0.00  0.00    +0.250 C 
ATOM      5  N   LIG    1        0.969   2.999  -2.201  0.00  0.00    -0.610 N 
ATOM      6  C   LIG    1       -0.268   2.946  -1.668  0.00  0.00    +0.510 C 
ATOM      7  O   LIG    1       -0.931   3.957  -1.573  0.00  0.00    -0.500 OA
ENDROOT
BRANCH   1  14
ATOM      8  C   LIG    1        1.907   6.559  -1.870  0.00  0.00    +0.160 A 
ATOM      9  C   LIG    1        2.061   7.474  -0.839  0.00  0.00    -0.060 A 
ATOM     10  C   LIG    1        2.110   7.035   0.470  0.00  0.00    +0.090 A 
ATOM     11  C   LIG    1        2.005   5.684   0.753  0.00  0.00    -0.120 A 
ATOM     12  C   LIG    1        1.846   4.771  -0.275  0.00  0.00    +0.100 A 
ATOM     13 BR   LIG    1        2.072   5.087   2.545  0.00  0.00    -0.050 Br
ATOM     14  C   LIG    1        1.802   5.206  -1.585  0.00  0.00    -0.110 A 
BRANCH   8  16
ATOM     15  C   LIG    1        1.972   8.397  -3.378  0.00  0.00    +0.240 C 
ATOM     16  O   LIG    1        1.858   6.989  -3.159  0.00  0.00    -0.310 OA
ENDBRANCH   8  16
ENDBRANCH   1  14
BRANCH   6  17
ATOM     17  C   LIG    1       -0.826   1.631  -1.190  0.00  0.00    +0.170 C 
ATOM     18  C   LIG    1       -0.013   1.086   0.008  0.00  0.00    +0.100 C 
ATOM     19  C   LIG    1       -0.788   1.607   1.203  0.00  0.00    +0.130 C 
ATOM     20  N   LIG    1       -1.952   1.993   0.788  0.00  0.00    -0.260 NA
ATOM     21  O   LIG    1       -2.131   1.807  -0.602  0.00  0.00    -0.150 OA
BRANCH  19  22
ATOM     22  C   LIG    1       -0.297   1.664   2.595  0.00  0.00    +0.170 A 
ATOM     23  C   LIG    1       -1.121   2.170   3.600  0.00  0.00    +0.010 A 
ATOM     24  C   LIG    1       -0.647   2.216   4.900  0.00  0.00    +0.070 A 
ATOM     25  C   LIG    1        0.636   1.755   5.153  0.00  0.00    -0.010 A 
ATOM     26  C   LIG    1        1.401   1.264   4.108  0.00  0.00    +0.270 A 
ATOM     27  N   LIG    1        0.924   1.226   2.882  0.00  0.00    -0.450 NA
ENDBRANCH  19  22
ENDBRANCH   6  17
TORSDOF 4
