REMARK  Name = ZINCtj0000002q3N.1
REMARK                            x       y       z     vdW  Elec       q    Type
REMARK                         _______ _______ _______ _____ _____    ______ ____
ROOT
ATOM      1  N   LIG    1       -1.754   2.343   1.408  0.00  0.00    -0.390 N 
ATOM      2  C   LIG    1       -2.063   1.051   2.071  0.00  0.00    +0.280 C 
ATOM      3  C   LIG    1       -2.988   1.466   3.243  0.00  0.00    +0.060 C 
ATOM      4  C   LIG    1       -3.838   2.601   2.627  0.00  0.00    +0.280 C 
ATOM      5  C   LIG    1       -3.010   3.122   1.437  0.00  0.00    +0.270 C 
ATOM      6  H   LIG    1       -1.030   2.830   1.915  0.00  0.00    +0.430 HD
ENDROOT
BRANCH   4   7
ATOM      7  N   LIG    1       -4.049   3.668   3.608  0.00  0.00    -0.750 N 
ATOM      8  H   LIG    1       -3.447   4.428   3.635  0.00  0.00    +0.400 HD
ATOM      9  C   LIG    1       -5.079   3.593   4.474  0.00  0.00    +0.710 C 
ATOM     10  N   LIG    1       -5.274   4.575   5.376  0.00  0.00    -0.720 N 
ATOM     11  H   LIG    1       -4.672   5.335   5.403  0.00  0.00    +0.400 HD
ATOM     12  O   LIG    1       -5.833   2.640   4.440  0.00  0.00    -0.560 OA
BRANCH  10  13
ATOM     13  C   LIG    1       -6.393   4.494   6.317  0.00  0.00    +0.260 C 
ATOM     14  C   LIG    1       -6.803   5.906   6.794  0.00  0.00    +0.060 C 
ATOM     15  C   LIG    1       -7.178   5.644   8.270  0.00  0.00    +0.270 C 
ATOM     16  N   LIG    1       -6.418   4.451   8.661  0.00  0.00    -0.590 N 
ATOM     17  C   LIG    1       -5.970   3.783   7.584  0.00  0.00    +0.500 C 
ATOM     18  O   LIG    1       -5.322   2.758   7.622  0.00  0.00    -0.510 OA
BRANCH  16  19
ATOM     19  C   LIG    1       -6.178   4.041  10.047  0.00  0.00    +0.200 C 
ATOM     20  C   LIG    1       -5.198   2.890  10.284  0.00  0.00    +0.040 C 
ATOM     21  C   LIG    1       -6.700   2.669  10.478  0.00  0.00    +0.010 C 
ENDBRANCH  16  19
ENDBRANCH  10  13
ENDBRANCH   4   7
BRANCH   1  22
ATOM     22  C   LIG    1       -1.333   2.112   0.020  0.00  0.00    +0.330 C 
BRANCH  22  25
ATOM     23  C   LIG    1        1.212  -0.683  -0.013  0.00  0.00    +0.180 A 
ATOM     24  C   LIG    1        0.002  -0.004   0.002  0.00  0.00    -0.030 A 
ATOM     25  C   LIG    1       -0.017   1.377   0.010  0.00  0.00    -0.080 A 
ATOM     26  C   LIG    1        1.169   2.087   0.002  0.00  0.00    -0.030 A 
ATOM     27  C   LIG    1        2.382   1.413  -0.013  0.00  0.00    +0.180 A 
ATOM     28  C   LIG    1        2.404   0.027  -0.020  0.00  0.00    -0.130 A 
BRANCH  23  30
ATOM     29  C   LIG    1        2.512  -2.673  -0.035  0.00  0.00    +0.250 C 
ATOM     30  O   LIG    1        1.230  -2.042  -0.019  0.00  0.00    -0.310 OA
ENDBRANCH  23  30
BRANCH  27  31
ATOM     31  O   LIG    1        3.548   2.111  -0.020  0.00  0.00    -0.310 OA
ATOM     32  C   LIG    1        4.759   1.352  -0.035  0.00  0.00    +0.250 C 
ENDBRANCH  27  31
ENDBRANCH  22  25
ENDBRANCH   1  22
TORSDOF 7
