REMARK  Name = ZINCtj0000002q3N.2
REMARK                            x       y       z     vdW  Elec       q    Type
REMARK                         _______ _______ _______ _____ _____    ______ ____
ROOT
ATOM      1  N   LIG    1       -3.662   1.333   0.087  0.00  0.00    -0.380 N 
ATOM      2  C   LIG    1       -3.296   2.048   1.324  0.00  0.00    +0.260 C 
ATOM      3  C   LIG    1       -1.762   1.954   1.470  0.00  0.00    +0.060 C 
ATOM      4  C   LIG    1       -1.290   1.681   0.017  0.00  0.00    +0.280 C 
ATOM      5  C   LIG    1       -2.432   0.783  -0.521  0.00  0.00    +0.270 C 
ATOM      6  H   LIG    1       -4.103   1.972  -0.557  0.00  0.00    +0.430 HD
ENDROOT
BRANCH   4   7
ATOM      7  N   LIG    1       -0.011   0.966   0.007  0.00  0.00    -0.740 N 
ATOM      8  H   LIG    1        0.002  -0.004   0.002  0.00  0.00    +0.400 HD
ATOM      9  C   LIG    1        1.147   1.655   0.000  0.00  0.00    +0.710 C 
ATOM     10  N   LIG    1        2.323   0.998  -0.015  0.00  0.00    -0.720 N 
ATOM     11  H   LIG    1        2.336   0.028  -0.020  0.00  0.00    +0.400 HD
ATOM     12  O   LIG    1        1.130   2.871   0.007  0.00  0.00    -0.560 OA
BRANCH  10  13
ATOM     13  C   LIG    1        3.582   1.747  -0.023  0.00  0.00    +0.260 C 
ATOM     14  C   LIG    1        4.723   0.883  -0.608  0.00  0.00    +0.070 C 
ATOM     15  C   LIG    1        5.337   0.269   0.674  0.00  0.00    +0.270 C 
ATOM     16  N   LIG    1        5.014   1.209   1.753  0.00  0.00    -0.590 N 
ATOM     17  C   LIG    1        4.028   2.048   1.391  0.00  0.00    +0.500 C 
ATOM     18  O   LIG    1        3.564   2.919   2.095  0.00  0.00    -0.500 OA
BRANCH  16  19
ATOM     19  C   LIG    1        5.681   1.232   3.057  0.00  0.00    +0.200 C 
ATOM     20  C   LIG    1        5.090   2.138   4.138  0.00  0.00    +0.040 C 
ATOM     21  C   LIG    1        6.407   2.518   3.457  0.00  0.00    +0.010 C 
ENDBRANCH  16  19
ENDBRANCH  10  13
ENDBRANCH   4   7
BRANCH   1  22
ATOM     22  C   LIG    1       -4.588   0.238   0.406  0.00  0.00    +0.330 C 
BRANCH  22  25
ATOM     23  C   LIG    1       -8.102   1.629   0.484  0.00  0.00    +0.180 A 
ATOM     24  C   LIG    1       -6.904   1.103   0.021  0.00  0.00    -0.030 A 
ATOM     25  C   LIG    1       -5.888   0.810   0.910  0.00  0.00    -0.080 A 
ATOM     26  C   LIG    1       -6.063   1.036   2.262  0.00  0.00    -0.030 A 
ATOM     27  C   LIG    1       -7.257   1.567   2.729  0.00  0.00    +0.180 A 
ATOM     28  C   LIG    1       -8.278   1.861   1.839  0.00  0.00    -0.120 A 
BRANCH  23  30
ATOM     29  C   LIG    1      -10.306   2.457   0.155  0.00  0.00    +0.250 C 
ATOM     30  O   LIG    1       -9.101   1.917  -0.391  0.00  0.00    -0.310 OA
ENDBRANCH  23  30
BRANCH  27  31
ATOM     31  O   LIG    1       -7.428   1.792   4.058  0.00  0.00    -0.310 OA
ATOM     32  C   LIG    1       -8.684   2.336   4.468  0.00  0.00    +0.250 C 
ENDBRANCH  27  31
ENDBRANCH  22  25
ENDBRANCH   1  22
TORSDOF 7
