REMARK  Name = ZINCAx0000000jb4.0
REMARK                            x       y       z     vdW  Elec       q    Type
REMARK                         _______ _______ _______ _____ _____    ______ ____
ROOT
ATOM      1  N   LIG    1       -3.414   2.439   0.052  0.00  0.00    -0.510 N 
ATOM      2  C   LIG    1       -2.638   1.354  -0.118  0.00  0.00    +0.570 C 
ATOM      3  C   LIG    1       -1.220   1.774  -0.057  0.00  0.00    -0.110 A 
ATOM      4  C   LIG    1       -0.011   1.107  -0.164  0.00  0.00    +0.100 A 
ATOM      5  C   LIG    1        1.177   1.811  -0.065  0.00  0.00    +0.090 A 
ATOM      6  C   LIG    1        1.163   3.189   0.148  0.00  0.00    -0.110 A 
ATOM      7  C   LIG    1       -0.053   3.869   0.263  0.00  0.00    +0.180 A 
ATOM      8  C   LIG    1       -1.242   3.167   0.164  0.00  0.00    -0.140 A 
ATOM      9  O   LIG    1       -3.034   0.219  -0.292  0.00  0.00    -0.440 OA
ATOM     10  C   LIG    1       -2.669   3.544   0.234  0.00  0.00    +0.580 C 
ATOM     11  O   LIG    1       -3.098   4.666   0.412  0.00  0.00    -0.440 OA
ENDROOT
BRANCH   1  15
ATOM     12  C   LIG    1       -7.586   2.379   0.056  0.00  0.00    +0.140 A 
ATOM     13  C   LIG    1       -6.875   1.201  -0.129  0.00  0.00    +0.020 A 
ATOM     14  C   LIG    1       -5.494   1.221  -0.130  0.00  0.00    +0.040 A 
ATOM     15  C   LIG    1       -4.817   2.419   0.053  0.00  0.00    +0.110 A 
ATOM     16  C   LIG    1       -5.528   3.596   0.243  0.00  0.00    +0.050 A 
ATOM     17  C   LIG    1       -6.908   3.578   0.239  0.00  0.00    +0.040 A 
BRANCH  12  20
ATOM     18  C   LIG    1      -11.179   3.442  -0.315  0.00  0.00    +0.110 C 
ATOM     19  C   LIG    1       -9.676   3.411  -0.426  0.00  0.00    +0.510 C 
ATOM     20  N   LIG    1       -8.986   2.359   0.058  0.00  0.00    -0.680 N 
ATOM     21  H   LIG    1       -9.460   1.588   0.407  0.00  0.00    +0.410 HD
ATOM     22  O   LIG    1       -9.087   4.333  -0.950  0.00  0.00    -0.520 OA
ENDBRANCH  12  20
ENDBRANCH   1  15
BRANCH   6  23
ATOM     23  C   LIG    1        2.438   3.934   0.253  0.00  0.00    +0.560 C 
ATOM     24  N   LIG    1        3.611   3.280   0.142  0.00  0.00    -0.720 N 
ATOM     25  H   LIG    1        3.620   2.321  -0.005  0.00  0.00    +0.400 HD
ATOM     26  O   LIG    1        2.427   5.135   0.438  0.00  0.00    -0.520 OA
BRANCH  24  27
ATOM     27  C   LIG    1        4.873   4.016   0.246  0.00  0.00    +0.290 C 
ATOM     28  C   LIG    1        5.237   4.599  -1.121  0.00  0.00    +0.040 C 
BRANCH  27  29
ATOM     29  C   LIG    1        5.965   3.082   0.701  0.00  0.00    -0.110 A 
ATOM     30  C   LIG    1        6.019   1.791   0.202  0.00  0.00    +0.060 A 
ATOM     31  C   LIG    1        7.014   0.925   0.612  0.00  0.00    -0.010 A 
ATOM     32  C   LIG    1        7.967   1.345   1.527  0.00  0.00    +0.180 A 
ATOM     33  C   LIG    1        7.916   2.651   2.033  0.00  0.00    -0.160 A 
ATOM     34  C   LIG    1        6.908   3.518   1.607  0.00  0.00    +0.070 A 
BRANCH  33  35
ATOM     35  C   LIG    1        8.925   3.109   3.007  0.00  0.00    +0.560 C 
ATOM     36  O   LIG    1        9.805   2.353   3.373  0.00  0.00    -0.520 OA
ATOM     37  N   LIG    1        8.873   4.366   3.492  0.00  0.00    -0.850 N 
ATOM     38  H   LIG    1        9.536   4.667   4.132  0.00  0.00    +0.410 HD
ATOM     39  H   LIG    1        8.171   4.969   3.200  0.00  0.00    +0.400 HD
ENDBRANCH  33  35
BRANCH  32  40
ATOM     40  O   LIG    1        8.946   0.496   1.929  0.00  0.00    -0.480 OA
ATOM     41  H   LIG    1        9.743   0.527   1.383  0.00  0.00    +0.400 HD
ENDBRANCH  32  40
ENDBRANCH  27  29
ENDBRANCH  24  27
ENDBRANCH   6  23
TORSDOF 7
