REMARK  Name = ZINCwl0000000eAo.1
REMARK                            x       y       z     vdW  Elec       q    Type
REMARK                         _______ _______ _______ _____ _____    ______ ____
ROOT
ATOM      1  C   LIG    1       -0.901  -0.826  -0.428  0.00  0.00    +0.530 C 
ATOM      2  N   LIG    1        0.250  -0.152  -0.617  0.00  0.00    -0.610 N 
ATOM      3  C   LIG    1        1.604  -0.739  -0.604  0.00  0.00    +0.250 C 
ATOM      4  C   LIG    1        2.549   0.439  -0.249  0.00  0.00    +0.070 C 
ATOM      5  C   LIG    1        1.859   1.610  -0.965  0.00  0.00    -0.090 C 
ATOM      6  C   LIG    1        2.205   2.954  -0.305  0.00  0.00    +0.060 C 
ATOM      7  C   LIG    1        1.993   3.939  -1.485  0.00  0.00    +0.250 C 
ATOM      8  N   LIG    1        2.435   3.200  -2.684  0.00  0.00    -0.610 N 
ATOM      9  C   LIG    1        2.859   3.754  -3.837  0.00  0.00    +0.610 C 
ATOM     10  O   LIG    1        3.286   3.047  -4.730  0.00  0.00    -0.510 OA
ATOM     11  C   LIG    1        2.334   1.755  -2.410  0.00  0.00    +0.280 C 
ATOM     12  C   LIG    1        0.366   1.296  -0.871  0.00  0.00    +0.280 C 
ATOM     13  O   LIG    1       -1.961  -0.238  -0.460  0.00  0.00    -0.530 OA
ENDROOT
BRANCH   9  14
ATOM     14  C   LIG    1        2.806   5.214  -4.015  0.00  0.00    -0.220 A 
ATOM     15  C   LIG    1        3.821   6.018  -3.519  0.00  0.00    +0.100 A 
ATOM     16  C   LIG    1        3.740   7.421  -3.708  0.00  0.00    -0.140 A 
ATOM     17  C   LIG    1        4.752   8.260  -3.218  0.00  0.00    +0.100 A 
ATOM     18  C   LIG    1        4.667   9.609  -3.405  0.00  0.00    +0.000 A 
ATOM     19  C   LIG    1        3.584  10.161  -4.077  0.00  0.00    +0.100 A 
ATOM     20  C   LIG    1        2.578   9.357  -4.567  0.00  0.00    -0.020 A 
ATOM     21  C   LIG    1        2.642   7.978  -4.390  0.00  0.00    +0.210 A 
ATOM     22  N   LIG    1        1.637   7.170  -4.880  0.00  0.00    -0.620 N 
ATOM     23  H   LIG    1        0.887   7.571  -5.348  0.00  0.00    +0.430 HD
ATOM     24 CL   LIG    1        5.170   5.318  -2.681  0.00  0.00    -0.020 Cl
ATOM     25  C   LIG    1        1.683   5.834  -4.723  0.00  0.00    +0.560 A 
ATOM     26  O   LIG    1        0.787   5.139  -5.168  0.00  0.00    -0.510 OA
ENDBRANCH   9  14
BRANCH   1  27
ATOM     27  C   LIG    1       -0.872  -2.312  -0.178  0.00  0.00    +0.070 C 
BRANCH  27  28
ATOM     28  C   LIG    1       -2.301  -2.828   0.002  0.00  0.00    +0.280 C 
BRANCH  28  30
ATOM     29  C   LIG    1       -1.599  -4.543   1.524  0.00  0.00    +0.320 C 
ATOM     30  N   LIG    1       -2.272  -4.276   0.246  0.00  0.00    -0.390 N 
ATOM     31  H   LIG    1       -1.771  -4.733  -0.501  0.00  0.00    +0.430 HD
BRANCH  30  32
ATOM     32  C   LIG    1       -3.647  -4.791   0.300  0.00  0.00    +0.280 C 
BRANCH  32  33
ATOM     33  C   LIG    1       -4.294  -4.662  -1.081  0.00  0.00    +0.210 C 
BRANCH  33  34
ATOM     34  O   LIG    1       -3.599  -5.493  -2.013  0.00  0.00    -0.580 OA
ATOM     35  H   LIG    1       -3.956  -5.460  -2.911  0.00  0.00    +0.410 HD
ENDBRANCH  33  34
ENDBRANCH  32  33
ENDBRANCH  30  32
ENDBRANCH  28  30
ENDBRANCH  27  28
ENDBRANCH   1  27
TORSDOF 7
