REMARK  Name = ZINCwl0000000eAo.0
REMARK                            x       y       z     vdW  Elec       q    Type
REMARK                         _______ _______ _______ _____ _____    ______ ____
ROOT
ATOM      1  C   LIG    1       -1.314  -0.647   4.006  0.00  0.00    +0.530 C 
ATOM      2  N   LIG    1       -0.841   0.235   3.104  0.00  0.00    -0.610 N 
ATOM      3  C   LIG    1        0.500   0.850   3.123  0.00  0.00    +0.250 C 
ATOM      4  C   LIG    1        0.349   2.170   2.321  0.00  0.00    +0.070 C 
ATOM      5  C   LIG    1       -0.662   1.755   1.241  0.00  0.00    -0.090 C 
ATOM      6  C   LIG    1       -1.443   2.967   0.706  0.00  0.00    +0.070 C 
ATOM      7  C   LIG    1       -1.851   2.471  -0.707  0.00  0.00    +0.240 C 
ATOM      8  N   LIG    1       -0.712   1.654  -1.168  0.00  0.00    -0.610 N 
ATOM      9  C   LIG    1       -0.400   1.395  -2.454  0.00  0.00    +0.610 C 
ATOM     10  O   LIG    1        0.615   0.781  -2.721  0.00  0.00    -0.510 OA
ATOM     11  C   LIG    1        0.027   1.166   0.010  0.00  0.00    +0.280 C 
ATOM     12  C   LIG    1       -1.578   0.747   1.934  0.00  0.00    +0.280 C 
ATOM     13  O   LIG    1       -2.438  -1.089   3.891  0.00  0.00    -0.530 OA
ENDROOT
BRANCH   9  14
ATOM     14  C   LIG    1       -1.287   1.857  -3.533  0.00  0.00    -0.220 A 
ATOM     15  C   LIG    1       -1.222   3.167  -3.983  0.00  0.00    +0.100 A 
ATOM     16  C   LIG    1       -2.090   3.580  -5.025  0.00  0.00    -0.140 A 
ATOM     17  C   LIG    1       -2.047   4.899  -5.500  0.00  0.00    +0.100 A 
ATOM     18  C   LIG    1       -2.886   5.288  -6.504  0.00  0.00    +0.000 A 
ATOM     19  C   LIG    1       -3.784   4.388  -7.061  0.00  0.00    +0.100 A 
ATOM     20  C   LIG    1       -3.845   3.087  -6.611  0.00  0.00    -0.020 A 
ATOM     21  C   LIG    1       -3.000   2.666  -5.588  0.00  0.00    +0.210 A 
ATOM     22  N   LIG    1       -3.058   1.364  -5.135  0.00  0.00    -0.620 N 
ATOM     23  H   LIG    1       -3.690   0.747  -5.535  0.00  0.00    +0.430 HD
ATOM     24 CL   LIG    1       -0.095   4.284  -3.280  0.00  0.00    -0.020 Cl
ATOM     25  C   LIG    1       -2.245   0.936  -4.151  0.00  0.00    +0.560 A 
ATOM     26  O   LIG    1       -2.310  -0.219  -3.770  0.00  0.00    -0.510 OA
ENDBRANCH   9  14
BRANCH   1  27
ATOM     27  C   LIG    1       -0.447  -1.085   5.158  0.00  0.00    +0.070 C 
BRANCH  27  28
ATOM     28  C   LIG    1       -1.217  -2.081   6.027  0.00  0.00    +0.290 C 
BRANCH  28  30
ATOM     29  C   LIG    1        0.786  -3.253   6.636  0.00  0.00    +0.320 C 
ATOM     30  N   LIG    1       -0.372  -2.508   7.150  0.00  0.00    -0.390 N 
ATOM     31  H   LIG    1       -0.051  -1.697   7.657  0.00  0.00    +0.430 HD
BRANCH  30  32
ATOM     32  C   LIG    1       -1.150  -3.371   8.048  0.00  0.00    +0.280 C 
BRANCH  32  33
ATOM     33  C   LIG    1       -0.310  -3.714   9.280  0.00  0.00    +0.210 C 
BRANCH  33  34
ATOM     34  O   LIG    1       -0.053  -2.523  10.028  0.00  0.00    -0.580 OA
ATOM     35  H   LIG    1        0.476  -2.666  10.825  0.00  0.00    +0.410 HD
ENDBRANCH  33  34
ENDBRANCH  32  33
ENDBRANCH  30  32
ENDBRANCH  28  30
ENDBRANCH  27  28
ENDBRANCH   1  27
TORSDOF 7
