REMARK  Name = ZINCrH000004l7Ft.0
REMARK                            x       y       z     vdW  Elec       q    Type
REMARK                         _______ _______ _______ _____ _____    ______ ____
ROOT
ATOM      1  C   LIG    1        6.232   6.283  -0.192  0.00  0.00    +0.240 C 
ENDROOT
BRANCH   1   4
ATOM      2  N   LIG    1        8.700   6.357  -0.347  0.00  0.00    -0.640 N 
ATOM      3  H   LIG    1        8.691   5.396  -0.478  0.00  0.00    +0.430 HD
ATOM      4  C   LIG    1        7.539   7.033  -0.236  0.00  0.00    +0.520 C 
ATOM      5  O   LIG    1        7.546   8.244  -0.171  0.00  0.00    -0.480 OA
BRANCH   2   7
ATOM      6  C   LIG    1       11.138   6.412  -0.246  0.00  0.00    -0.350 A 
ATOM      7  C   LIG    1        9.914   7.040  -0.275  0.00  0.00    +0.250 A 
ATOM      8  C   LIG    1       10.013   8.416  -0.219  0.00  0.00    +0.010 A 
ATOM      9  C   LIG    1       11.259   8.892  -0.153  0.00  0.00    -0.020 A 
ATOM     10  S   LIG    1       12.404   7.628  -0.157  0.00  0.00    +0.270 S 
BRANCH   6  11
ATOM     11  C   LIG    1       11.344   5.013  -0.284  0.00  0.00    +0.550 C 
ATOM     12  O   LIG    1       10.391   4.258  -0.348  0.00  0.00    -0.520 OA
BRANCH  11  14
ATOM     13  C   LIG    1       12.732   3.092  -0.291  0.00  0.00    +0.270 C 
ATOM     14  O   LIG    1       12.598   4.514  -0.249  0.00  0.00    -0.350 OA
ENDBRANCH  11  14
ENDBRANCH   6  11
ENDBRANCH   2   7
ENDBRANCH   1   4
BRANCH   1  15
ATOM     15  O   LIG    1        5.154   7.213  -0.072  0.00  0.00    -0.290 OA
BRANCH  15  16
ATOM     16  C   LIG    1        3.897   6.698  -0.019  0.00  0.00    +0.130 A 
ATOM     17  C   LIG    1        2.804   7.544   0.097  0.00  0.00    +0.010 A 
ATOM     18  C   LIG    1        1.528   7.020   0.152  0.00  0.00    +0.060 A 
ATOM     19  C   LIG    1        1.338   5.647   0.090  0.00  0.00    +0.060 A 
ATOM     20  C   LIG    1        2.431   4.801  -0.021  0.00  0.00    +0.050 A 
ATOM     21  C   LIG    1        3.708   5.325  -0.081  0.00  0.00    -0.060 A 
BRANCH  19  22
ATOM     22  O   LIG    1        0.081   5.131   0.144  0.00  0.00    -0.250 OA
BRANCH  22  23
ATOM     23  C   LIG    1       -0.697   5.232  -0.963  0.00  0.00    +0.310 A 
ATOM     24  C   LIG    1       -1.947   4.627  -0.982  0.00  0.00    -0.050 A 
ATOM     25  C   LIG    1       -2.733   4.741  -2.116  0.00  0.00    +0.100 A 
ATOM     26  C   LIG    1       -2.233   5.451  -3.199  0.00  0.00    -0.070 A 
ATOM     27  C   LIG    1       -0.981   6.027  -3.110  0.00  0.00    +0.300 A 
ATOM     28  N   LIG    1       -0.257   5.905  -2.014  0.00  0.00    -0.530 NA
ENDBRANCH  22  23
ENDBRANCH  19  22
ENDBRANCH  15  16
ENDBRANCH   1  15
TORSDOF 8
