REMARK  Name = ZINCpk00000y6uoJ.0
REMARK                            x       y       z     vdW  Elec       q    Type
REMARK                         _______ _______ _______ _____ _____    ______ ____
ROOT
ATOM      1  C   LIG    1       -2.432   1.228  -3.619  0.00  0.00    +0.110 C 
ATOM      2  C   LIG    1       -0.997   1.758  -3.630  0.00  0.00    +0.170 C 
ENDROOT
BRANCH   2   3
ATOM      3  N   LIG    1       -0.309   1.284  -4.838  0.00  0.00    -0.380 N 
ATOM      4  C   LIG    1       -1.010   1.764  -6.062  0.00  0.00    +0.280 C 
ATOM      5  C   LIG    1        0.069   1.668  -7.167  0.00  0.00    +0.000 C 
ATOM      6  C   LIG    1       -0.242   2.591  -8.297  0.00  0.00    +0.070 C 
ATOM      7  C   LIG    1        0.776   3.657  -8.628  0.00  0.00    +0.180 C 
ATOM      8  C   LIG    1        2.194   3.153  -8.364  0.00  0.00    +0.010 C 
ATOM      9  C   LIG    1        2.313   2.883  -6.864  0.00  0.00    +0.050 C 
ATOM     10  C   LIG    1        1.395   1.758  -6.448  0.00  0.00    +0.010 C 
ATOM     11  C   LIG    1        1.043   1.898  -4.946  0.00  0.00    +0.280 C 
ATOM     12  H   LIG    1       -0.245   0.277  -4.838  0.00  0.00    +0.430 HD
BRANCH   7  13
ATOM     13  O   LIG    1        0.529   4.810  -7.820  0.00  0.00    -0.570 OA
ATOM     14  H   LIG    1        1.145   5.539  -7.977  0.00  0.00    +0.390 HD
ENDBRANCH   7  13
ENDBRANCH   2   3
BRANCH   2  15
ATOM     15  C   LIG    1       -0.268   1.258  -2.409  0.00  0.00    +0.500 C 
ATOM     16  N   LIG    1       -0.721   1.571  -1.179  0.00  0.00    -0.690 N 
ATOM     17  H   LIG    1       -1.516   2.118  -1.079  0.00  0.00    +0.410 HD
ATOM     18  O   LIG    1        0.726   0.575  -2.534  0.00  0.00    -0.540 OA
BRANCH  16  19
ATOM     19  C   LIG    1       -0.013   1.086   0.008  0.00  0.00    +0.330 C 
BRANCH  19  20
ATOM     20  C   LIG    1       -0.718   1.572   1.248  0.00  0.00    -0.150 A 
ATOM     21  C   LIG    1       -0.357   2.781   1.817  0.00  0.00    +0.010 A 
ATOM     22  C   LIG    1       -1.001   3.234   2.949  0.00  0.00    +0.040 A 
ATOM     23  C   LIG    1       -2.014   2.465   3.527  0.00  0.00    -0.110 A 
ATOM     24  C   LIG    1       -2.370   1.243   2.950  0.00  0.00    +0.040 A 
ATOM     25  C   LIG    1       -1.720   0.804   1.816  0.00  0.00    +0.010 A 
BRANCH  23  26
ATOM     26  C   LIG    1       -2.705   2.941   4.740  0.00  0.00    +0.510 C 
ATOM     27  O   LIG    1       -2.391   4.011   5.243  0.00  0.00    -0.680 OA
ATOM     28  O   LIG    1       -3.591   2.265   5.244  0.00  0.00    -0.680 OA
ENDBRANCH  23  26
ENDBRANCH  19  20
ENDBRANCH  16  19
ENDBRANCH   2  15
TORSDOF 6
