REMARK  Name = ZINCpk00000y6uoJ.1
REMARK                            x       y       z     vdW  Elec       q    Type
REMARK                         _______ _______ _______ _____ _____    ______ ____
ROOT
ATOM      1  C   LIG    1       -3.397   2.209  -2.502  0.00  0.00    +0.110 C 
ATOM      2  C   LIG    1       -3.126   1.137  -1.445  0.00  0.00    +0.160 C 
ENDROOT
BRANCH   2   3
ATOM      3  N   LIG    1       -1.715   0.734  -1.507  0.00  0.00    -0.380 N 
ATOM      4  C   LIG    1       -1.447  -0.304  -0.486  0.00  0.00    +0.280 C 
ATOM      5  C   LIG    1        0.002  -0.004   0.002  0.00  0.00    +0.040 C 
ATOM      6  C   LIG    1        0.955  -0.529  -1.073  0.00  0.00    +0.030 C 
ATOM      7  C   LIG    1        2.344   0.084  -0.917  0.00  0.00    +0.180 C 
ATOM      8  C   LIG    1        2.231   1.601  -1.105  0.00  0.00    -0.010 C 
ATOM      9  C   LIG    1        1.356   2.158   0.001  0.00  0.00    +0.050 C 
ATOM     10  C   LIG    1       -0.019   1.536   0.011  0.00  0.00    +0.000 C 
ATOM     11  C   LIG    1       -0.851   1.900  -1.226  0.00  0.00    +0.260 C 
ATOM     12  H   LIG    1       -1.506   0.369  -2.425  0.00  0.00    +0.430 HD
BRANCH   7  13
ATOM     13  O   LIG    1        3.222  -0.458  -1.906  0.00  0.00    -0.570 OA
ATOM     14  H   LIG    1        4.124  -0.111  -1.864  0.00  0.00    +0.390 HD
ENDBRANCH   7  13
ENDBRANCH   2   3
BRANCH   2  15
ATOM     15  C   LIG    1       -4.003  -0.061  -1.708  0.00  0.00    +0.500 C 
ATOM     16  N   LIG    1       -5.344   0.071  -1.700  0.00  0.00    -0.690 N 
ATOM     17  H   LIG    1       -5.745   0.937  -1.526  0.00  0.00    +0.410 HD
ATOM     18  O   LIG    1       -3.501  -1.143  -1.925  0.00  0.00    -0.530 OA
BRANCH  16  19
ATOM     19  C   LIG    1       -6.196  -1.093  -1.956  0.00  0.00    +0.330 C 
BRANCH  19  20
ATOM     20  C   LIG    1       -7.644  -0.679  -1.892  0.00  0.00    -0.150 A 
ATOM     21  C   LIG    1       -8.325  -0.740  -0.689  0.00  0.00    +0.010 A 
ATOM     22  C   LIG    1       -9.649  -0.359  -0.622  0.00  0.00    +0.040 A 
ATOM     23  C   LIG    1      -10.305   0.080  -1.775  0.00  0.00    -0.110 A 
ATOM     24  C   LIG    1       -9.612   0.134  -2.987  0.00  0.00    +0.040 A 
ATOM     25  C   LIG    1       -8.287  -0.245  -3.038  0.00  0.00    +0.010 A 
BRANCH  23  26
ATOM     26  C   LIG    1      -11.723   0.484  -1.712  0.00  0.00    +0.510 C 
ATOM     27  O   LIG    1      -12.326   0.436  -0.649  0.00  0.00    -0.680 OA
ATOM     28  O   LIG    1      -12.294   0.868  -2.723  0.00  0.00    -0.680 OA
ENDBRANCH  23  26
ENDBRANCH  19  20
ENDBRANCH  16  19
ENDBRANCH   2  15
TORSDOF 6
