REMARK  Name = ZINCpe000000YsgZ.0
REMARK                            x       y       z     vdW  Elec       q    Type
REMARK                         _______ _______ _______ _____ _____    ______ ____
ROOT
ATOM      1  N   LIG    1       -1.297   3.482   0.018  0.00  0.00    -0.720 N 
ATOM      2  H   LIG    1       -0.456   3.966   0.017  0.00  0.00    +0.400 HD
ATOM      3  C   LIG    1       -1.299   2.135   0.013  0.00  0.00    +0.560 C 
ATOM      4  O   LIG    1       -2.353   1.529   0.014  0.00  0.00    -0.520 OA
ENDROOT
BRANCH   1  11
ATOM      5  C   LIG    1       -6.284   7.893   0.063  0.00  0.00    +0.370 C 
ATOM      6  N   LIG    1       -5.604   6.856   0.844  0.00  0.00    -0.280 N 
ATOM      7  N   LIG    1       -5.952   6.437   2.014  0.00  0.00    -0.090 NA
ATOM      8  N   LIG    1       -5.142   5.517   2.418  0.00  0.00    -0.260 NA
ATOM      9  C   LIG    1       -4.223   5.319   1.479  0.00  0.00    -0.010 A 
ATOM     10  C   LIG    1       -3.065   4.356   1.470  0.00  0.00    +0.140 C 
ATOM     11  C   LIG    1       -2.564   4.217   0.026  0.00  0.00    +0.250 C 
ATOM     12  C   LIG    1       -2.351   5.607  -0.579  0.00  0.00    +0.050 C 
ATOM     13  C   LIG    1       -3.711   6.283  -0.805  0.00  0.00    +0.140 C 
ATOM     14  C   LIG    1       -4.510   6.174   0.467  0.00  0.00    -0.030 A 
ENDBRANCH   1  11
BRANCH   3  15
ATOM     15  C   LIG    1       -0.017   1.392   0.004  0.00  0.00    -0.060 A 
ATOM     16  C   LIG    1        1.206   2.070  -0.004  0.00  0.00    -0.040 A 
ATOM     17  C   LIG    1        2.379   1.342  -0.017  0.00  0.00    +0.300 A 
ATOM     18  N   LIG    1        2.360   0.024  -0.022  0.00  0.00    -0.460 NA
ATOM     19  C   LIG    1        1.227  -0.660  -0.015  0.00  0.00    +0.360 A 
ATOM     20  C   LIG    1        0.002  -0.004  -0.002  0.00  0.00    +0.000 A 
BRANCH  19  21
ATOM     21  N   LIG    1        1.263  -2.054  -0.021  0.00  0.00    -0.660 N 
ATOM     22  H   LIG    1        0.440  -2.561   0.058  0.00  0.00    +0.420 HD
ATOM     23  C   LIG    1        2.442  -2.697  -0.138  0.00  0.00    +0.530 C 
ATOM     24  O   LIG    1        3.478  -2.067  -0.144  0.00  0.00    -0.470 OA
BRANCH  23  25
ATOM     25  C   LIG    1        2.472  -4.199  -0.260  0.00  0.00    -0.070 C 
ATOM     26  C   LIG    1        3.049  -4.992   0.914  0.00  0.00    +0.060 C 
ATOM     27  C   LIG    1        3.841  -4.870  -0.390  0.00  0.00    +0.080 C 
ENDBRANCH  23  25
ENDBRANCH  19  21
ENDBRANCH   3  15
TORSDOF 4
