REMARK  Name = ZINCrD000000D8ZM.0
REMARK                            x       y       z     vdW  Elec       q    Type
REMARK                         _______ _______ _______ _____ _____    ______ ____
ROOT
ATOM      1  C   LIG    1       -7.283   1.686   2.829  0.00  0.00    -0.040 A 
ATOM      2  C   LIG    1       -8.638   1.421   2.837  0.00  0.00    +0.240 A 
ATOM      3  C   LIG    1       -9.088   0.118   2.948  0.00  0.00    -0.190 A 
ATOM      4  C   LIG    1       -8.183  -0.924   3.045  0.00  0.00    +0.240 A 
ATOM      5  C   LIG    1       -6.827  -0.665   3.031  0.00  0.00    -0.100 A 
ATOM      6  C   LIG    1       -6.371   0.642   2.920  0.00  0.00    +0.270 A 
ENDROOT
BRANCH   3   7
ATOM      7  C   LIG    1      -10.568  -0.168   2.964  0.00  0.00    +0.520 C 
ATOM      8  F   LIG    1      -10.805  -1.431   2.411  0.00  0.00    -0.160 F 
ATOM      9  F   LIG    1      -11.238   0.803   2.212  0.00  0.00    -0.160 F 
ATOM     10  F   LIG    1      -11.034  -0.141   4.282  0.00  0.00    -0.160 F 
ENDBRANCH   3   7
BRANCH   1  12
ATOM     11  O   LIG    1       -7.597   3.987   2.532  0.00  0.00    -0.160 OA
ATOM     12  N   LIG    1       -6.802   3.082   2.716  0.00  0.00    +0.030 N 
ATOM     13  O   LIG    1       -5.612   3.325   2.808  0.00  0.00    -0.070 OA
ENDBRANCH   1  12
BRANCH   5  14
ATOM     14  N   LIG    1       -5.859  -1.781   3.134  0.00  0.00    +0.030 N 
ATOM     15  O   LIG    1       -4.664  -1.548   3.176  0.00  0.00    -0.160 OA
ATOM     16  O   LIG    1       -6.258  -2.931   3.176  0.00  0.00    -0.110 OA
ENDBRANCH   5  14
BRANCH   6  17
ATOM     17  N   LIG    1       -5.000   0.907   2.905  0.00  0.00    -0.640 N 
ATOM     18  H   LIG    1       -4.516   0.346   3.590  0.00  0.00    +0.390 HD
BRANCH  17  19
ATOM     19  C   LIG    1       -4.438   0.700   1.563  0.00  0.00    +0.210 C 
BRANCH  19  20
ATOM     20  C   LIG    1       -2.971   1.135   1.552  0.00  0.00    +0.030 C 
BRANCH  20  21
ATOM     21  C   LIG    1       -2.421   1.037   0.128  0.00  0.00    +0.140 C 
BRANCH  21  22
ATOM     22  C   LIG    1       -1.016   1.581   0.093  0.00  0.00    -0.010 A 
ATOM     23  C   LIG    1        0.107   0.869   0.295  0.00  0.00    -0.020 A 
ATOM     24  C   LIG    1        1.190   1.769   0.167  0.00  0.00    -0.080 A 
ATOM     25  C   LIG    1        0.663   2.978  -0.100  0.00  0.00    +0.160 A 
ATOM     26  O   LIG    1       -0.674   2.858  -0.141  0.00  0.00    -0.180 OA
ENDBRANCH  21  22
ENDBRANCH  20  21
BRANCH  20  27
ATOM     27  C   LIG    1       -2.162   0.223   2.475  0.00  0.00    +0.180 C 
BRANCH  27  28
ATOM     28  O   LIG    1       -0.817   0.699   2.556  0.00  0.00    -0.550 OA
ATOM     29  H   LIG    1       -0.245   0.167   3.126  0.00  0.00    +0.370 HD
ENDBRANCH  27  28
ENDBRANCH  20  27
ENDBRANCH  19  20
ENDBRANCH  17  19
ENDBRANCH   6  17
TORSDOF 10
