REMARK  Name = ZINCvU00000003VH.0
REMARK                            x       y       z     vdW  Elec       q    Type
REMARK                         _______ _______ _______ _____ _____    ______ ____
ROOT
ATOM      1  C   LIG    1        3.471   3.984   1.038  0.00  0.00    +0.080 A 
ATOM      2  N   LIG    1        4.388   4.793   0.568  0.00  0.00    -0.340 NA
ATOM      3  O   LIG    1        4.093   5.225  -0.520  0.00  0.00    +0.110 OA
ATOM      4  C   LIG    1        2.918   4.766  -0.970  0.00  0.00    -0.010 A 
ATOM      5  C   LIG    1        2.430   3.931  -0.006  0.00  0.00    -0.130 A 
ENDROOT
BRANCH   1   9
ATOM      6  C   LIG    1        3.494   1.941   4.768  0.00  0.00    +0.140 A 
ATOM      7  C   LIG    1        4.685   2.146   4.082  0.00  0.00    -0.010 A 
ATOM      8  C   LIG    1        4.680   2.808   2.873  0.00  0.00    +0.080 A 
ATOM      9  C   LIG    1        3.479   3.272   2.338  0.00  0.00    -0.060 A 
ATOM     10  C   LIG    1        2.286   3.069   3.031  0.00  0.00    +0.090 A 
ATOM     11  C   LIG    1        2.296   2.401   4.237  0.00  0.00    -0.080 A 
BRANCH   6  13
ATOM     12  C   LIG    1        2.243   1.113   6.611  0.00  0.00    +0.240 C 
ATOM     13  O   LIG    1        3.502   1.289   5.959  0.00  0.00    -0.310 OA
ENDBRANCH   6  13
ENDBRANCH   1   9
BRANCH   5  14
ATOM     14  C   LIG    1        1.160   3.163  -0.006  0.00  0.00    -0.060 A 
ATOM     15  C   LIG    1        1.187   1.770  -0.019  0.00  0.00    +0.080 A 
ATOM     16  C   LIG    1        0.004   1.059  -0.019  0.00  0.00    -0.010 A 
ATOM     17  C   LIG    1       -1.211   1.730  -0.011  0.00  0.00    +0.140 A 
ATOM     18  C   LIG    1       -1.240   3.117   0.007  0.00  0.00    -0.080 A 
ATOM     19  C   LIG    1       -0.062   3.834   0.007  0.00  0.00    +0.070 A 
BRANCH  17  20
ATOM     20  O   LIG    1       -2.374   1.026  -0.017  0.00  0.00    -0.320 OA
ATOM     21  C   LIG    1       -3.588   1.780  -0.008  0.00  0.00    +0.250 C 
ENDBRANCH  17  20
ENDBRANCH   5  14
BRANCH   4  22
ATOM     22  C   LIG    1        2.261   5.106  -2.283  0.00  0.00    +0.200 C 
BRANCH  22  23
ATOM     23  C   LIG    1        1.380   6.316  -2.106  0.00  0.00    +0.520 C 
ATOM     24  N   LIG    1        0.689   6.805  -3.154  0.00  0.00    -0.670 N 
ATOM     25  H   LIG    1        0.809   6.420  -4.036  0.00  0.00    +0.410 HD
ATOM     26  O   LIG    1        1.294   6.849  -1.020  0.00  0.00    -0.500 OA
BRANCH  24  27
ATOM     27  C   LIG    1       -0.203   7.867  -2.969  0.00  0.00    +0.140 A 
ATOM     28  C   LIG    1       -1.374   7.930  -3.713  0.00  0.00    -0.010 A 
ATOM     29  C   LIG    1       -2.255   8.977  -3.525  0.00  0.00    +0.030 A 
ATOM     30  C   LIG    1       -1.967   9.968  -2.604  0.00  0.00    -0.010 A 
ATOM     31  C   LIG    1       -0.799   9.911  -1.866  0.00  0.00    +0.030 A 
ATOM     32  C   LIG    1        0.084   8.864  -2.046  0.00  0.00    +0.020 A 
ENDBRANCH  24  27
ENDBRANCH  22  23
ENDBRANCH   4  22
TORSDOF 7
