REMARK  Name = ZINCpk00000y6tMI.0
REMARK                            x       y       z     vdW  Elec       q    Type
REMARK                         _______ _______ _______ _____ _____    ______ ____
ROOT
ATOM      1  C   LIG    1       -1.920  -1.190  -3.595  0.00  0.00    +0.130 C 
ATOM      2  C   LIG    1       -0.790  -2.085  -4.112  0.00  0.00    +0.010 C 
ATOM      3  C   LIG    1       -0.505  -3.180  -3.080  0.00  0.00    +0.040 C 
ATOM      4  C   LIG    1       -0.145  -2.532  -1.742  0.00  0.00    +0.150 C 
ATOM      5  N   LIG    1       -1.258  -1.687  -1.290  0.00  0.00    -0.500 NA
ATOM      6  C   LIG    1       -1.518  -0.600  -2.242  0.00  0.00    +0.230 C 
ENDROOT
BRANCH   1   7
ATOM      7  O   LIG    1       -3.111  -1.965  -3.444  0.00  0.00    -0.530 OA
ATOM      8  H   LIG    1       -3.422  -2.372  -4.265  0.00  0.00    +0.370 HD
ENDBRANCH   1   7
BRANCH   5   9
ATOM      9  C   LIG    1       -1.004  -1.159   0.057  0.00  0.00    +0.330 C 
BRANCH   9  10
ATOM     10  C   LIG    1        0.113  -0.148  -0.002  0.00  0.00    +0.180 A 
ATOM     11  N   LIG    1       -0.016   1.113  -0.311  0.00  0.00    -0.470 NA
ATOM     12  C   LIG    1        1.185   1.708  -0.261  0.00  0.00    +0.150 A 
ATOM     13  C   LIG    1        2.098   0.783   0.093  0.00  0.00    +0.130 A 
ATOM     14  N   LIG    1        1.422  -0.398   0.259  0.00  0.00    -0.410 N 
BRANCH  14  15
ATOM     15  C   LIG    1        1.978  -1.631   0.632  0.00  0.00    +0.110 A 
ATOM     16  C   LIG    1        1.494  -2.301   1.748  0.00  0.00    +0.020 A 
ATOM     17  C   LIG    1        2.040  -3.517   2.111  0.00  0.00    +0.040 A 
ATOM     18  C   LIG    1        3.074  -4.061   1.370  0.00  0.00    +0.020 A 
ATOM     19  C   LIG    1        3.560  -3.393   0.262  0.00  0.00    +0.030 A 
ATOM     20  C   LIG    1        3.015  -2.179  -0.109  0.00  0.00    +0.020 A 
ENDBRANCH  14  15
ENDBRANCH   9  10
ENDBRANCH   5   9
BRANCH   1  21
ATOM     21  C   LIG    1       -2.171  -0.057  -4.593  0.00  0.00    +0.320 C 
BRANCH  21  22
ATOM     22  N   LIG    1       -2.550  -0.623  -5.889  0.00  0.00    -0.290 N 
ATOM     23  C   LIG    1       -3.672  -0.326  -6.586  0.00  0.00    +0.150 A 
ATOM     24  C   LIG    1       -3.621  -1.069  -7.716  0.00  0.00    +0.140 A 
ATOM     25  N   LIG    1       -2.486  -1.774  -7.657  0.00  0.00    -0.270 NA
ATOM     26  N   LIG    1       -1.872  -1.483  -6.564  0.00  0.00    -0.090 NA
ENDBRANCH  21  22
ENDBRANCH   1  21
TORSDOF 6
