REMARK  Name = ZINCrH000004joU1.0
REMARK                            x       y       z     vdW  Elec       q    Type
REMARK                         _______ _______ _______ _____ _____    ______ ____
ROOT
ATOM      1  N   LIG    1       -4.488  11.027   0.450  0.00  0.00    -0.500 N 
ATOM      2  C   LIG    1       -3.922  12.289   0.407  0.00  0.00    +0.150 A 
ATOM      3  C   LIG    1       -2.532  12.146   0.285  0.00  0.00    -0.110 A 
ATOM      4  C   LIG    1       -2.260  10.697   0.255  0.00  0.00    -0.090 A 
ATOM      5  C   LIG    1       -1.094   9.944   0.149  0.00  0.00    +0.080 A 
ATOM      6  C   LIG    1       -1.166   8.562   0.149  0.00  0.00    +0.100 A 
ATOM      7  C   LIG    1       -2.401   7.928   0.248  0.00  0.00    +0.030 A 
ATOM      8  C   LIG    1       -3.559   8.666   0.359  0.00  0.00    +0.010 A 
ATOM      9  C   LIG    1       -1.719  13.275   0.219  0.00  0.00    +0.070 A 
ATOM     10  C   LIG    1       -2.285  14.531   0.273  0.00  0.00    -0.020 A 
ATOM     11  C   LIG    1       -3.659  14.673   0.394  0.00  0.00    +0.050 A 
ATOM     12  C   LIG    1       -4.475  13.565   0.461  0.00  0.00    -0.020 A 
ATOM     13  C   LIG    1       -3.504  10.057   0.360  0.00  0.00    +0.140 A 
ENDROOT
BRANCH   6  14
ATOM     14  N   LIG    1        0.005   7.800   0.043  0.00  0.00    -0.660 N 
ATOM     15  H   LIG    1       -0.004   6.962  -0.445  0.00  0.00    +0.420 HD
ATOM     16  C   LIG    1        1.144   8.232   0.619  0.00  0.00    +0.510 C 
ATOM     17  O   LIG    1        1.178   9.318   1.158  0.00  0.00    -0.520 OA
BRANCH  16  18
ATOM     18  C   LIG    1        2.377   7.364   0.595  0.00  0.00    +0.320 C 
BRANCH  18  19
ATOM     19  N   LIG    1        3.472   8.053   1.282  0.00  0.00    -0.710 N 
ATOM     20  H   LIG    1        3.328   8.933   1.663  0.00  0.00    +0.420 HD
ATOM     21  C   LIG    1        4.680   7.463   1.385  0.00  0.00    +0.610 C 
ATOM     22  O   LIG    1        4.860   6.359   0.906  0.00  0.00    -0.520 OA
BRANCH  21  23
ATOM     23  C   LIG    1        5.776   8.153   2.072  0.00  0.00    -0.090 A 
ATOM     24  C   LIG    1        7.042   7.672   2.247  0.00  0.00    +0.050 A 
ATOM     25  C   LIG    1        7.753   8.655   2.953  0.00  0.00    -0.070 A 
ATOM     26  C   LIG    1        6.901   9.679   3.176  0.00  0.00    +0.210 A 
ATOM     27  O   LIG    1        5.711   9.373   2.644  0.00  0.00    -0.160 OA
ENDBRANCH  21  23
ENDBRANCH  18  19
ENDBRANCH  16  18
ENDBRANCH   6  14
BRANCH   1  29
ATOM     28  C   LIG    1       -6.547  10.668  -0.820  0.00  0.00    +0.020 C 
ATOM     29  C   LIG    1       -5.923  10.756   0.574  0.00  0.00    +0.290 C 
ENDBRANCH   1  29
TORSDOF 5
