REMARK  Name = ZINCrg00000SjSMg.0
REMARK                            x       y       z     vdW  Elec       q    Type
REMARK                         _______ _______ _______ _____ _____    ______ ____
ROOT
ATOM      1  N   LIG    1        5.671   1.461  -0.860  0.00  0.00    -0.560 N 
ATOM      2  C   LIG    1        5.533   0.959   0.373  0.00  0.00    +0.710 C 
ATOM      3  N   LIG    1        4.377   1.331   0.952  0.00  0.00    -0.720 N 
ATOM      4  H   LIG    1        4.068   1.087   1.838  0.00  0.00    +0.440 HD
ATOM      5  C   LIG    1        3.672   2.182  -0.022  0.00  0.00    +0.220 C 
ATOM      6  O   LIG    1        6.359   0.247   0.909  0.00  0.00    -0.520 OA
ATOM      7  C   LIG    1        4.612   2.216  -1.211  0.00  0.00    +0.550 C 
ATOM      8  O   LIG    1        4.445   2.801  -2.260  0.00  0.00    -0.450 OA
ENDROOT
BRANCH   5   9
ATOM      9  C   LIG    1        3.466   3.567   0.535  0.00  0.00    -0.100 A 
ATOM     10  C   LIG    1        3.029   4.586  -0.291  0.00  0.00    +0.030 A 
ATOM     11  C   LIG    1        2.835   5.855   0.221  0.00  0.00    +0.010 A 
ATOM     12  C   LIG    1        3.087   6.108   1.556  0.00  0.00    +0.020 A 
ATOM     13  C   LIG    1        3.530   5.090   2.381  0.00  0.00    +0.010 A 
ATOM     14  C   LIG    1        3.719   3.820   1.870  0.00  0.00    +0.030 A 
ENDBRANCH   5   9
BRANCH   5  15
ATOM     15  C   LIG    1        2.352   1.565  -0.407  0.00  0.00    -0.090 A 
ATOM     16  C   LIG    1        1.725   1.949  -1.578  0.00  0.00    +0.040 A 
ATOM     17  C   LIG    1        0.514   1.383  -1.931  0.00  0.00    +0.020 A 
ATOM     18  C   LIG    1       -0.070   0.435  -1.113  0.00  0.00    +0.020 A 
ATOM     19  C   LIG    1        0.556   0.052   0.059  0.00  0.00    +0.010 A 
ATOM     20  C   LIG    1        1.767   0.617   0.411  0.00  0.00    +0.030 A 
ENDBRANCH   5  15
BRANCH   1  22
ATOM     21  C   LIG    1        6.970  -0.282  -1.980  0.00  0.00    +0.080 C 
ATOM     22  C   LIG    1        6.831   1.219  -1.721  0.00  0.00    +0.270 C 
BRANCH  22  23
ATOM     23  C   LIG    1        8.076   1.729  -1.042  0.00  0.00    +0.510 C 
ATOM     24  N   LIG    1        9.272   1.613  -1.652  0.00  0.00    -0.690 N 
ATOM     25  H   LIG    1        9.332   1.202  -2.528  0.00  0.00    +0.410 HD
ATOM     26  C   LIG    1       10.386   2.069  -1.044  0.00  0.00    +0.700 C 
ATOM     27  O   LIG    1       10.311   2.585   0.054  0.00  0.00    -0.530 OA
ATOM     28  N   LIG    1       11.582   1.953  -1.654  0.00  0.00    -0.860 N 
ATOM     29  H   LIG    1       12.383   2.281  -1.217  0.00  0.00    +0.420 HD
ATOM     30  H   LIG    1       11.642   1.542  -2.531  0.00  0.00    +0.400 HD
ATOM     31  O   LIG    1        8.002   2.243   0.053  0.00  0.00    -0.440 OA
ENDBRANCH  22  23
ENDBRANCH   1  22
TORSDOF 4
