REMARK  Name = ZINCvU00000004mY.0
REMARK                            x       y       z     vdW  Elec       q    Type
REMARK                         _______ _______ _______ _____ _____    ______ ____
ROOT
ATOM      1  O   LIG    1        5.223   2.688   3.009  0.00  0.00    -0.500 OA
ATOM      2  C   LIG    1        4.524   1.713   2.832  0.00  0.00    +0.510 C 
ATOM      3  N   LIG    1        4.641   0.644   3.644  0.00  0.00    -0.680 N 
ATOM      4  H   LIG    1        4.039  -0.110   3.544  0.00  0.00    +0.410 HD
ENDROOT
BRANCH   3   5
ATOM      5  C   LIG    1        5.632   0.621   4.632  0.00  0.00    +0.150 A 
ATOM      6  C   LIG    1        5.995   1.793   5.281  0.00  0.00    +0.020 A 
ATOM      7  C   LIG    1        6.969   1.766   6.260  0.00  0.00    +0.020 A 
ATOM      8  C   LIG    1        7.591   0.575   6.585  0.00  0.00    -0.010 A 
ATOM      9  C   LIG    1        7.236  -0.594   5.937  0.00  0.00    +0.020 A 
ATOM     10  C   LIG    1        6.259  -0.574   4.961  0.00  0.00    -0.100 A 
BRANCH  10  11
ATOM     11  C   LIG    1        5.873  -1.848   4.254  0.00  0.00    +0.120 C 
BRANCH  11  12
ATOM     12  C   LIG    1        6.649  -1.964   2.968  0.00  0.00    -0.070 A 
ATOM     13  C   LIG    1        6.132  -1.437   1.799  0.00  0.00    +0.000 A 
ATOM     14  C   LIG    1        6.845  -1.539   0.619  0.00  0.00    +0.000 A 
ATOM     15  C   LIG    1        8.072  -2.176   0.607  0.00  0.00    +0.000 A 
ATOM     16  C   LIG    1        8.588  -2.706   1.775  0.00  0.00    +0.000 A 
ATOM     17  C   LIG    1        7.876  -2.600   2.955  0.00  0.00    +0.010 A 
ENDBRANCH  11  12
ENDBRANCH  10  11
ENDBRANCH   3   5
BRANCH   2  18
ATOM     18  C   LIG    1        3.526   1.696   1.704  0.00  0.00    +0.220 C 
BRANCH  18  19
ATOM     19  N   LIG    1        3.592   2.969   0.972  0.00  0.00    -0.490 NA
ATOM     20  C   LIG    1        4.864   3.085   0.227  0.00  0.00    +0.190 C 
ATOM     21  C   LIG    1        4.500   3.875  -1.055  0.00  0.00    +0.030 C 
ATOM     22  C   LIG    1        3.088   3.315  -1.381  0.00  0.00    +0.040 C 
ATOM     23  C   LIG    1        2.475   3.088   0.017  0.00  0.00    +0.260 C 
BRANCH  23  24
ATOM     24  C   LIG    1        1.661   1.820   0.020  0.00  0.00    +0.070 A 
ATOM     25  N   LIG    1        2.161   0.643   0.002  0.00  0.00    -0.460 NA
ATOM     26  C   LIG    1        1.311  -0.402   0.007  0.00  0.00    +0.080 A 
ATOM     27  C   LIG    1        1.585  -1.784  -0.009  0.00  0.00    +0.060 A 
ATOM     28  C   LIG    1        0.566  -2.689   0.000  0.00  0.00    +0.040 A 
ATOM     29  C   LIG    1       -0.756  -2.269   0.025  0.00  0.00    +0.040 A 
ATOM     30  C   LIG    1       -1.053  -0.925   0.042  0.00  0.00    +0.060 A 
ATOM     31  C   LIG    1       -0.025   0.015   0.033  0.00  0.00    -0.180 A 
ATOM     32  S   LIG    1       -0.045   1.775   0.048  0.00  0.00    +0.120 S 
ENDBRANCH  23  24
ENDBRANCH  18  19
ENDBRANCH   2  18
TORSDOF 6
