REMARK  Name = ZINCpk00000y4Cdw.0
REMARK                            x       y       z     vdW  Elec       q    Type
REMARK                         _______ _______ _______ _____ _____    ______ ____
ROOT
ATOM      1  N   LIG    1        5.353   2.289  -3.629  0.00  0.00    -0.710 N 
ATOM      2  H   LIG    1        5.089   3.032  -3.064  0.00  0.00    +0.410 HD
ATOM      3  C   LIG    1        4.713   1.107  -3.532  0.00  0.00    +0.610 C 
ATOM      4  O   LIG    1        5.043   0.176  -4.240  0.00  0.00    -0.520 OA
ENDROOT
BRANCH   3   5
ATOM      5  C   LIG    1        3.608   0.943  -2.565  0.00  0.00    -0.030 A 
ATOM      6  N   LIG    1        3.148   1.869  -1.738  0.00  0.00    -0.220 NA
ATOM      7  N   LIG    1        2.189   1.406  -1.036  0.00  0.00    -0.270 N 
ATOM      8  C   LIG    1        1.383   2.063  -0.000  0.00  0.00    +0.340 C 
ATOM      9  C   LIG    1       -0.018   1.454   0.010  0.00  0.00    +0.300 C 
ATOM     10  N   LIG    1        0.002  -0.004   0.002  0.00  0.00    -0.730 N 
ATOM     11  H   LIG    1       -0.648  -0.488   0.535  0.00  0.00    +0.410 HD
ATOM     12  C   LIG    1        0.906  -0.700  -0.730  0.00  0.00    +0.600 C 
ATOM     13  O   LIG    1        0.848  -1.910  -0.841  0.00  0.00    -0.500 OA
ATOM     14  C   LIG    1        1.962   0.090  -1.385  0.00  0.00    -0.060 A 
ATOM     15  C   LIG    1        2.849  -0.231  -2.354  0.00  0.00    +0.100 A 
ENDBRANCH   3   5
BRANCH   1  21
ATOM     16  C   LIG    1       10.043   2.709  -3.807  0.00  0.00    +0.140 A 
ATOM     17  C   LIG    1       10.336   1.590  -3.043  0.00  0.00    -0.070 A 
ATOM     18  C   LIG    1        9.339   0.681  -2.744  0.00  0.00    +0.050 A 
ATOM     19  C   LIG    1        8.054   0.888  -3.207  0.00  0.00    +0.000 A 
ATOM     20  C   LIG    1        7.757   2.005  -3.971  0.00  0.00    -0.070 A 
ATOM     21  C   LIG    1        6.449   2.451  -4.588  0.00  0.00    +0.300 C 
ATOM     22  C   LIG    1        6.649   3.944  -4.924  0.00  0.00    +0.050 C 
ATOM     23  C   LIG    1        8.178   4.039  -5.112  0.00  0.00    +0.090 C 
ATOM     24  C   LIG    1        8.750   2.917  -4.272  0.00  0.00    -0.120 A 
BRANCH  16  25
ATOM     25  O   LIG    1       11.023   3.604  -4.101  0.00  0.00    -0.310 OA
BRANCH  25  27
ATOM     26  C   LIG    1       13.289   4.438  -4.023  0.00  0.00    +0.070 C 
ATOM     27  C   LIG    1       12.329   3.329  -3.591  0.00  0.00    +0.170 C 
ENDBRANCH  25  27
ENDBRANCH  16  25
ENDBRANCH   1  21
TORSDOF 4
