REMARK  Name = ZINCtV00000L6kES.0
REMARK                            x       y       z     vdW  Elec       q    Type
REMARK                         _______ _______ _______ _____ _____    ______ ____
ROOT
ATOM      1  C   LIG    1       -1.851   1.141   2.087  0.00  0.00    +0.060 A 
ATOM      2  C   LIG    1       -0.930   1.894   1.440  0.00  0.00    -0.540 A 
ATOM      3  N   LIG    1       -0.832   3.067   2.085  0.00  0.00    -0.390 NA
ATOM      4  C   LIG    1       -1.668   3.061   3.099  0.00  0.00    +0.270 A 
ATOM      5  O   LIG    1       -2.309   1.875   3.123  0.00  0.00    -0.180 OA
ENDROOT
BRANCH   4   6
ATOM      6  C   LIG    1       -1.867   4.161   4.053  0.00  0.00    -0.150 A 
ATOM      7  C   LIG    1       -2.731   4.146   5.105  0.00  0.00    +0.060 A 
ATOM      8  C   LIG    1       -2.735   5.301   5.856  0.00  0.00    +0.010 A 
ATOM      9  C   LIG    1       -1.896   6.253   5.440  0.00  0.00    -0.020 A 
ATOM     10  S   LIG    1       -1.020   5.702   4.018  0.00  0.00    +0.220 S 
ENDBRANCH   4   6
BRANCH   2  11
ATOM     11  S   LIG    1       -0.017   1.417   0.010  0.00  0.00    +2.610 S 
ATOM     12  O   LIG    1        1.162   2.210   0.003  0.00  0.00    -0.910 OA
ATOM     13  O   LIG    1        0.002  -0.004   0.002  0.00  0.00    -0.910 OA
BRANCH  11  14
ATOM     14  C   LIG    1       -0.957   1.909  -1.397  0.00  0.00    -0.660 A 
ATOM     15  C   LIG    1       -1.877   1.040  -1.953  0.00  0.00    +0.140 A 
ATOM     16  C   LIG    1       -2.617   1.427  -3.053  0.00  0.00    +0.020 A 
ATOM     17  C   LIG    1       -2.430   2.682  -3.606  0.00  0.00    +0.020 A 
ATOM     18  C   LIG    1       -1.506   3.550  -3.052  0.00  0.00    +0.020 A 
ATOM     19 CL   LIG    1       -3.355   3.167  -4.993  0.00  0.00    -0.050 Cl
ATOM     20  C   LIG    1       -0.770   3.163  -1.948  0.00  0.00    +0.160 A 
ENDBRANCH  11  14
ENDBRANCH   2  11
BRANCH   1  21
ATOM     21  S   LIG    1       -2.357  -0.491   1.657  0.00  0.00    +0.080 S 
BRANCH  21  23
ATOM     22  C   LIG    1       -2.918  -0.936   4.298  0.00  0.00    +0.070 C 
ATOM     23  C   LIG    1       -3.593  -0.883   2.926  0.00  0.00    +0.050 C 
BRANCH  23  24
ATOM     24  C   LIG    1       -4.219  -2.220   2.622  0.00  0.00    -0.080 A 
ATOM     25  C   LIG    1       -3.430  -3.353   2.557  0.00  0.00    +0.030 A 
ATOM     26  C   LIG    1       -4.005  -4.580   2.282  0.00  0.00    +0.020 A 
ATOM     27  C   LIG    1       -5.367  -4.672   2.064  0.00  0.00    +0.020 A 
ATOM     28  C   LIG    1       -6.155  -3.538   2.124  0.00  0.00    +0.010 A 
ATOM     29  C   LIG    1       -5.581  -2.311   2.403  0.00  0.00    +0.030 A 
ENDBRANCH  23  24
ENDBRANCH  21  23
ENDBRANCH   1  21
TORSDOF 6
