REMARK  Name = ZINCrH000004rwl3.0
REMARK                            x       y       z     vdW  Elec       q    Type
REMARK                         _______ _______ _______ _____ _____    ______ ____
ROOT
ATOM      1  C   LIG    1       -3.183   0.869   5.592  0.00  0.00    +0.520 C 
ATOM      2  N   LIG    1       -2.821   1.033   4.304  0.00  0.00    -0.610 N 
ATOM      3  C   LIG    1       -3.115   2.288   3.598  0.00  0.00    +0.290 C 
ATOM      4  C   LIG    1       -3.908   1.960   2.326  0.00  0.00    +0.300 C 
ATOM      5  N   LIG    1       -3.212   0.887   1.603  0.00  0.00    -0.990 NA
ATOM      6  C   LIG    1       -2.922  -0.370   2.307  0.00  0.00    +0.300 C 
ATOM      7  C   LIG    1       -2.125  -0.041   3.581  0.00  0.00    +0.270 C 
ATOM      8  O   LIG    1       -3.757   1.762   6.179  0.00  0.00    -0.530 OA
ENDROOT
BRANCH   5   9
ATOM      9  S   LIG    1       -2.768   1.088   0.020  0.00  0.00    +2.710 S 
ATOM     10  O   LIG    1       -2.650  -0.216  -0.532  0.00  0.00    -0.940 OA
ATOM     11  O   LIG    1       -3.629   2.083  -0.515  0.00  0.00    -0.940 OA
BRANCH   9  12
ATOM     12  C   LIG    1       -1.146   1.778   0.017  0.00  0.00    -0.800 A 
ATOM     13  C   LIG    1       -0.013   1.076   0.008  0.00  0.00    +0.180 A 
ATOM     14  C   LIG    1        1.145   1.836   0.001  0.00  0.00    +0.010 A 
ATOM     15  C   LIG    1        0.949   3.157   0.010  0.00  0.00    -0.110 A 
ATOM     16 CL   LIG    1        2.205   4.355   0.004  0.00  0.00    +0.010 Cl
ATOM     17  S   LIG    1       -0.777   3.497   0.028  0.00  0.00    +0.270 S 
ENDBRANCH   9  12
ENDBRANCH   5   9
BRANCH   1  18
ATOM     18  C   LIG    1       -2.875  -0.423   6.303  0.00  0.00    +0.090 C 
BRANCH  18  19
ATOM     19  C   LIG    1       -3.388  -0.349   7.742  0.00  0.00    +0.110 C 
BRANCH  19  20
ATOM     20  S   LIG    1       -3.017  -1.904   8.598  0.00  0.00    -0.120 S 
BRANCH  20  25
ATOM     21  C   LIG    1       -5.258  -0.981  14.126  0.00  0.00    +0.090 C 
ATOM     22  C   LIG    1       -4.699  -1.212  12.746  0.00  0.00    -0.090 A 
ATOM     23  C   LIG    1       -4.088  -2.415  12.441  0.00  0.00    +0.030 A 
ATOM     24  C   LIG    1       -3.574  -2.629  11.178  0.00  0.00    +0.040 A 
ATOM     25  C   LIG    1       -3.671  -1.635  10.212  0.00  0.00    -0.090 A 
ATOM     26  C   LIG    1       -4.281  -0.425  10.523  0.00  0.00    +0.000 A 
ATOM     27  C   LIG    1       -4.798  -0.220  11.787  0.00  0.00    +0.030 A 
ENDBRANCH  20  25
ENDBRANCH  19  20
ENDBRANCH  18  19
ENDBRANCH   1  18
TORSDOF 6
