REMARK  Name = ZINCqH0000037AOF.0
REMARK                            x       y       z     vdW  Elec       q    Type
REMARK                         _______ _______ _______ _____ _____    ______ ____
ROOT
ATOM      1  C   LIG    1       -8.636   0.090   1.748  0.00  0.00    +0.610 C 
ATOM      2  N   LIG    1       -7.404   0.402   1.299  0.00  0.00    -0.720 N 
ATOM      3  H   LIG    1       -7.173   1.327   1.118  0.00  0.00    +0.410 HD
ATOM      4  O   LIG    1       -8.925  -1.069   1.976  0.00  0.00    -0.510 OA
ENDROOT
BRANCH   1   7
ATOM      5  C   LIG    1      -11.536  -0.360   2.776  0.00  0.00    +0.140 C 
ATOM      6  C   LIG    1      -10.896   0.956   2.414  0.00  0.00    -0.070 A 
ATOM      7  C   LIG    1       -9.629   1.151   1.965  0.00  0.00    -0.040 A 
ATOM      8  O   LIG    1       -9.419   2.467   1.753  0.00  0.00    -0.180 OA
ATOM      9  C   LIG    1      -10.525   3.183   2.040  0.00  0.00    +0.070 A 
ATOM     10  C   LIG    1      -10.819   4.540   1.988  0.00  0.00    +0.070 A 
ATOM     11  C   LIG    1      -12.067   4.990   2.358  0.00  0.00    +0.040 A 
ATOM     12  C   LIG    1      -13.045   4.100   2.787  0.00  0.00    +0.080 A 
ATOM     13  C   LIG    1      -12.776   2.749   2.847  0.00  0.00    +0.060 A 
ATOM     14  F   LIG    1      -14.263   4.560   3.146  0.00  0.00    -0.130 F 
ATOM     15  C   LIG    1      -11.514   2.280   2.474  0.00  0.00    -0.120 A 
ENDBRANCH   1   7
BRANCH   2  16
ATOM     16  C   LIG    1       -6.413  -0.655   1.083  0.00  0.00    +0.290 C 
ATOM     17  C   LIG    1       -6.609  -1.261  -0.308  0.00  0.00    +0.040 C 
BRANCH  16  18
ATOM     18  C   LIG    1       -5.027  -0.074   1.188  0.00  0.00    -0.040 A 
ATOM     19  C   LIG    1       -4.027  -0.783   1.825  0.00  0.00    +0.010 A 
ATOM     20  C   LIG    1       -2.755  -0.251   1.921  0.00  0.00    +0.130 A 
ATOM     21  C   LIG    1       -2.483   0.992   1.379  0.00  0.00    -0.660 A 
ATOM     22  C   LIG    1       -3.485   1.704   0.746  0.00  0.00    +0.130 A 
ATOM     23  C   LIG    1       -4.756   1.169   0.647  0.00  0.00    -0.010 A 
BRANCH  21  24
ATOM     24  S   LIG    1       -0.862   1.671   1.500  0.00  0.00    +2.500 S 
ATOM     25  O   LIG    1       -1.065   3.076   1.440  0.00  0.00    -0.940 OA
ATOM     26  O   LIG    1       -0.312   1.059   2.659  0.00  0.00    -0.930 OA
ATOM     27  C   LIG    1       -0.013   1.086   0.008  0.00  0.00    -0.260 C 
ENDBRANCH  21  24
ENDBRANCH  16  18
ENDBRANCH   2  16
TORSDOF 4
