REMARK  Name = ZINCkj00000y7zNm.0
REMARK                            x       y       z     vdW  Elec       q    Type
REMARK                         _______ _______ _______ _____ _____    ______ ____
ROOT
ATOM      1  C   LIG    1        4.080   1.802   0.983  0.00  0.00    +0.280 C 
ENDROOT
BRANCH   1   9
ATOM      2  C   LIG    1       -1.248   2.213   0.020  0.00  0.00    +0.140 C 
ATOM      3  C   LIG    1       -0.016   1.344   0.009  0.00  0.00    -0.000 A 
ATOM      4  C   LIG    1        0.002  -0.004   0.002  0.00  0.00    +0.130 A 
ATOM      5  N   LIG    1        1.313  -0.378  -0.013  0.00  0.00    -0.450 N 
ATOM      6  C   LIG    1        1.858  -1.737  -0.027  0.00  0.00    +0.290 C 
ATOM      7  C   LIG    1        3.325  -1.676  -0.468  0.00  0.00    +0.050 C 
ATOM      8  C   LIG    1        4.066  -0.626   0.365  0.00  0.00    +0.050 C 
ATOM      9  C   LIG    1        3.567   0.772  -0.025  0.00  0.00    +0.090 C 
ATOM     10  C   LIG    1        2.057   0.754  -0.013  0.00  0.00    +0.200 A 
ATOM     11  N   LIG    1        1.255   1.778  -0.000  0.00  0.00    -0.490 NA
ENDBRANCH   1   9
BRANCH   1  12
ATOM     12  N   LIG    1        3.701   3.147   0.542  0.00  0.00    -0.700 N 
ATOM     13  H   LIG    1        3.201   3.265  -0.281  0.00  0.00    +0.410 HD
ATOM     14  C   LIG    1        4.049   4.221   1.278  0.00  0.00    +0.530 C 
ATOM     15  O   LIG    1        4.676   4.074   2.310  0.00  0.00    -0.540 OA
BRANCH  14  16
ATOM     16  C   LIG    1        3.669   5.571   0.835  0.00  0.00    +0.020 C 
ATOM     17  C   LIG    1        4.012   6.631   1.562  0.00  0.00    -0.010 C 
BRANCH  17  18
ATOM     18  C   LIG    1        3.623   8.014   1.108  0.00  0.00    +0.310 C 
BRANCH  18  19
ATOM     19  N   LIG    1        2.880   8.690   2.180  0.00  0.00    -0.390 N 
ATOM     20  C   LIG    1        2.397   9.991   1.696  0.00  0.00    +0.320 C 
ATOM     21  C   LIG    1        3.764   8.895   3.335  0.00  0.00    +0.330 C 
ATOM     22  H   LIG    1        2.093   8.121   2.454  0.00  0.00    +0.430 HD
ENDBRANCH  18  19
ENDBRANCH  17  18
ENDBRANCH  14  16
ENDBRANCH   1  12
TORSDOF 5
