REMARK  Name = ZINCvU0000000J4y.0
REMARK                            x       y       z     vdW  Elec       q    Type
REMARK                         _______ _______ _______ _____ _____    ______ ____
ROOT
ATOM      1  C   LIG    1        4.144   5.573  -0.879  0.00  0.00    +0.520 C 
ATOM      2  N   LIG    1        2.921   5.142  -0.511  0.00  0.00    -0.730 N 
ATOM      3  H   LIG    1        2.133   5.650  -0.760  0.00  0.00    +0.400 HD
ATOM      4  O   LIG    1        5.134   4.993  -0.487  0.00  0.00    -0.530 OA
ENDROOT
BRANCH   1   5
ATOM      5  C   LIG    1        4.281   6.776  -1.776  0.00  0.00    +0.060 C 
BRANCH   5   6
ATOM      6  C   LIG    1        5.763   7.051  -2.038  0.00  0.00    +0.140 C 
BRANCH   6  17
ATOM      7  C   LIG    1        5.600   6.747  -4.930  0.00  0.00    +0.160 C 
ATOM      8  C   LIG    1        5.822   8.110  -4.326  0.00  0.00    +0.240 A 
ATOM      9  N   LIG    1        5.941   9.161  -5.106  0.00  0.00    -0.470 NA
ATOM     10  C   LIG    1        6.138  10.376  -4.591  0.00  0.00    +0.330 A 
ATOM     11  C   LIG    1        6.297  11.645  -5.180  0.00  0.00    -0.190 A 
ATOM     12  C   LIG    1        6.473  12.564  -4.132  0.00  0.00    +0.360 A 
ATOM     13  N   LIG    1        6.427  11.920  -2.995  0.00  0.00    -0.300 NA
ATOM     14  N   LIG    1        6.220  10.558  -3.239  0.00  0.00    -0.300 N 
ATOM     15  C   LIG    1        6.095   9.487  -2.404  0.00  0.00    +0.210 A 
ATOM     16  C   LIG    1        6.177   9.669  -0.910  0.00  0.00    +0.160 C 
ATOM     17  C   LIG    1        5.900   8.253  -2.936  0.00  0.00    -0.190 A 
BRANCH  11  18
ATOM     18  C   LIG    1        6.283  11.941  -6.581  0.00  0.00    +0.300 C 
ATOM     19  N   LIG    1        6.271  12.177  -7.692  0.00  0.00    -0.430 NA
ENDBRANCH  11  18
ENDBRANCH   6  17
ENDBRANCH   5   6
ENDBRANCH   1   5
BRANCH   2  20
ATOM     20  C   LIG    1        2.782   3.907   0.264  0.00  0.00    +0.290 C 
BRANCH  20  21
ATOM     21  C   LIG    1        1.437   3.288  -0.015  0.00  0.00    -0.080 A 
ATOM     22  C   LIG    1        1.359   2.058  -0.642  0.00  0.00    +0.040 A 
ATOM     23  C   LIG    1        0.125   1.490  -0.899  0.00  0.00    +0.030 A 
ATOM     24  C   LIG    1       -1.032   2.154  -0.532  0.00  0.00    -0.030 A 
ATOM     25  C   LIG    1       -0.953   3.381   0.101  0.00  0.00    +0.020 A 
ATOM     26 CL   LIG    1       -2.582   1.444  -0.860  0.00  0.00    -0.070 Cl
ATOM     27  C   LIG    1        0.281   3.949   0.357  0.00  0.00    +0.030 A 
ENDBRANCH  20  21
BRANCH  20  28
ATOM     28  C   LIG    1        2.897   4.226   1.756  0.00  0.00    +0.020 C 
BRANCH  28  29
ATOM     29  C   LIG    1        2.898   2.922   2.558  0.00  0.00    -0.060 C 
ATOM     30  C   LIG    1        1.538   2.236   2.416  0.00  0.00    +0.020 C 
ATOM     31  C   LIG    1        3.163   3.231   4.033  0.00  0.00    +0.020 C 
ATOM     32  C   LIG    1        3.994   1.997   2.025  0.00  0.00    +0.030 C 
ENDBRANCH  28  29
ENDBRANCH  20  28
ENDBRANCH   2  20
TORSDOF 8
