REMARK  Name = ZINCpk00000xIdif.0
REMARK                            x       y       z     vdW  Elec       q    Type
REMARK                         _______ _______ _______ _____ _____    ______ ____
ROOT
ATOM      1  C   LIG    1       -1.942   1.125  -5.713  0.00  0.00    +0.470 C 
ATOM      2  O   LIG    1       -3.092   1.384  -5.449  0.00  0.00    -0.490 OA
ENDROOT
BRANCH   1   3
ATOM      3  C   LIG    1       -1.586   0.565  -7.066  0.00  0.00    +0.170 C 
BRANCH   3   7
ATOM      4  C   LIG    1       -5.135   0.161  -9.419  0.00  0.00    +0.110 A 
ATOM      5  C   LIG    1       -4.821  -0.793  -8.465  0.00  0.00    +0.010 A 
ATOM      6  C   LIG    1       -3.670  -0.663  -7.708  0.00  0.00    -0.070 A 
ATOM      7  C   LIG    1       -2.836   0.424  -7.896  0.00  0.00    -0.050 A 
ATOM      8  C   LIG    1       -3.144   1.379  -8.847  0.00  0.00    +0.000 A 
ATOM      9 BR   LIG    1       -3.240  -1.970  -6.411  0.00  0.00    -0.040 Br
ATOM     10  C   LIG    1       -4.292   1.252  -9.611  0.00  0.00    +0.120 A 
BRANCH   4  12
ATOM     11  C   LIG    1       -7.080  -1.114  -9.915  0.00  0.00    +0.250 C 
ATOM     12  O   LIG    1       -6.263   0.031 -10.167  0.00  0.00    -0.300 OA
ENDBRANCH   4  12
BRANCH  10  13
ATOM     13  O   LIG    1       -4.596   2.191 -10.547  0.00  0.00    -0.300 OA
ATOM     14  C   LIG    1       -3.686   3.283 -10.688  0.00  0.00    +0.250 C 
ENDBRANCH  10  13
ENDBRANCH   3   7
ENDBRANCH   1   3
BRANCH   1  15
ATOM     15  O   LIG    1       -0.981   1.337  -4.800  0.00  0.00    -0.330 OA
BRANCH  15  16
ATOM     16  C   LIG    1       -1.396   1.879  -3.518  0.00  0.00    +0.200 C 
ATOM     17  C   LIG    1       -1.357   3.407  -3.574  0.00  0.00    +0.070 C 
BRANCH  16  18
ATOM     18  C   LIG    1       -0.463   1.391  -2.441  0.00  0.00    +0.540 C 
ATOM     19  N   LIG    1       -0.790   1.551  -1.143  0.00  0.00    -0.580 N 
ATOM     20  C   LIG    1       -1.971   2.271  -0.644  0.00  0.00    +0.270 C 
ATOM     21  C   LIG    1       -1.863   2.149   0.888  0.00  0.00    +0.270 C 
ATOM     22  N   LIG    1       -0.627   1.372   1.090  0.00  0.00    -0.730 N 
ATOM     23  H   LIG    1       -0.260   1.113   1.950  0.00  0.00    +0.440 HD
ATOM     24  C   LIG    1       -0.091   1.078  -0.102  0.00  0.00    +0.700 C 
ATOM     25  O   LIG    1        0.936   0.440  -0.229  0.00  0.00    -0.530 OA
ATOM     26  O   LIG    1        0.583   0.855  -2.741  0.00  0.00    -0.440 OA
ENDBRANCH  16  18
ENDBRANCH  15  16
ENDBRANCH   1  15
TORSDOF 7
