REMARK  Name = ZINCpe00000VVH0J.0
REMARK                            x       y       z     vdW  Elec       q    Type
REMARK                         _______ _______ _______ _____ _____    ______ ____
ROOT
ATOM      1  C   LIG    1       -2.747  -4.687   0.003  0.00  0.00    +0.510 C 
ATOM      2  N   LIG    1       -2.594  -3.348   0.009  0.00  0.00    -0.610 N 
ATOM      3  C   LIG    1       -2.520  -2.598  -1.253  0.00  0.00    +0.290 C 
ATOM      4  C   LIG    1       -1.247  -1.746  -1.246  0.00  0.00    +0.040 C 
ATOM      5  C   LIG    1       -1.232  -0.869   0.009  0.00  0.00    +0.090 C 
ATOM      6  C   LIG    1       -1.225  -1.758   1.254  0.00  0.00    +0.040 C 
ATOM      7  C   LIG    1       -2.498  -2.610   1.276  0.00  0.00    +0.270 C 
ATOM      8  O   LIG    1       -2.825  -5.284  -1.049  0.00  0.00    -0.530 OA
ENDROOT
BRANCH   5   9
ATOM      9  C   LIG    1        0.002  -0.004   0.002  0.00  0.00    +0.100 A 
ATOM     10  N   LIG    1        1.198  -0.457  -0.012  0.00  0.00    -0.460 NA
ATOM     11  C   LIG    1        2.208   0.433  -0.017  0.00  0.00    +0.080 A 
ATOM     12  C   LIG    1        3.601   0.215  -0.032  0.00  0.00    +0.070 A 
ATOM     13  C   LIG    1        4.464   1.269  -0.035  0.00  0.00    +0.030 A 
ATOM     14  C   LIG    1        3.992   2.573  -0.023  0.00  0.00    +0.040 A 
ATOM     15  C   LIG    1        2.637   2.817  -0.009  0.00  0.00    +0.060 A 
ATOM     16  C   LIG    1        1.739   1.752  -0.005  0.00  0.00    -0.180 A 
ATOM     17  S   LIG    1       -0.021   1.702   0.011  0.00  0.00    +0.100 S 
ENDBRANCH   5   9
BRANCH   1  18
ATOM     18  C   LIG    1       -2.821  -5.442   1.306  0.00  0.00    +0.320 C 
BRANCH  18  20
ATOM     19  C   LIG    1       -3.078  -7.747   2.053  0.00  0.00    +0.510 C 
ATOM     20  N   LIG    1       -2.987  -6.871   1.032  0.00  0.00    -0.690 N 
ATOM     21  H   LIG    1       -3.032  -7.188   0.117  0.00  0.00    +0.430 HD
ATOM     22  O   LIG    1       -3.022  -7.350   3.199  0.00  0.00    -0.520 OA
BRANCH  19  26
ATOM     23  C   LIG    1       -3.503 -11.510   2.522  0.00  0.00    +0.300 C 
ATOM     24  N   LIG    1       -3.337 -10.080   2.796  0.00  0.00    -0.700 N 
ATOM     25  H   LIG    1       -3.293  -9.763   3.711  0.00  0.00    +0.420 HD
ATOM     26  C   LIG    1       -3.247  -9.205   1.774  0.00  0.00    +0.510 C 
ATOM     27  O   LIG    1       -3.303  -9.601   0.629  0.00  0.00    -0.510 OA
ENDBRANCH  19  26
ENDBRANCH  18  20
ENDBRANCH   1  18
TORSDOF 4
