REMARK  Name = ZINCnE000004vOjC.1
REMARK                            x       y       z     vdW  Elec       q    Type
REMARK                         _______ _______ _______ _____ _____    ______ ____
ROOT
ATOM      1  C   LIG    1       -2.505   1.001   0.019  0.00  0.00    +0.120 A 
ATOM      2  C   LIG    1       -3.702   1.613   0.034  0.00  0.00    -0.180 A 
ATOM      3  S   LIG    1       -4.955   0.373   0.027  0.00  0.00    -0.020 S 
ATOM      4  C   LIG    1       -3.716  -0.878   0.015  0.00  0.00    +0.380 A 
ATOM      5  N   LIG    1       -2.543  -0.324   0.013  0.00  0.00    -0.550 NA
ENDROOT
BRANCH   1   9
ATOM      6  C   LIG    1        2.487   1.046  -0.015  0.00  0.00    +0.110 C 
ATOM      7  C   LIG    1        1.172   1.783   0.000  0.00  0.00    -0.130 A 
ATOM      8  C   LIG    1       -0.013   1.076   0.008  0.00  0.00    +0.110 A 
ATOM      9  C   LIG    1       -1.228   1.757   0.017  0.00  0.00    -0.030 A 
ATOM     10  C   LIG    1       -1.241   3.152   0.030  0.00  0.00    +0.130 A 
ATOM     11  C   LIG    1       -0.048   3.851   0.023  0.00  0.00    -0.040 A 
ATOM     12  F   LIG    1       -2.416   3.819   0.046  0.00  0.00    -0.120 F 
ATOM     13  C   LIG    1        1.156   3.168   0.008  0.00  0.00    +0.110 A 
ATOM     14  F   LIG    1        2.320   3.855   0.001  0.00  0.00    -0.140 F 
ENDBRANCH   1   9
BRANCH   4  15
ATOM     15  N   LIG    1       -3.957  -2.247   0.009  0.00  0.00    -0.660 NA
ATOM     16  C   LIG    1       -5.223  -2.708   0.013  0.00  0.00    +0.460 C 
ATOM     17  O   LIG    1       -6.152  -1.929   0.021  0.00  0.00    -0.600 OA
BRANCH  16  18
ATOM     18  C   LIG    1       -5.484  -4.192   0.006  0.00  0.00    +0.010 C 
ATOM     19  C   LIG    1       -5.416  -4.824  -1.394  0.00  0.00    +0.010 C 
ATOM     20  C   LIG    1       -6.630  -5.674  -0.984  0.00  0.00    +0.100 C 
ATOM     21  C   LIG    1       -7.663  -5.847  -2.099  0.00  0.00    +0.020 C 
ATOM     22  C   LIG    1       -6.979  -4.555   0.011  0.00  0.00    +0.060 C 
BRANCH  20  23
ATOM     23  O   LIG    1       -6.279  -6.909  -0.356  0.00  0.00    -0.540 OA
ATOM     24  H   LIG    1       -6.059  -7.617  -0.976  0.00  0.00    +0.370 HD
ENDBRANCH  20  23
ENDBRANCH  16  18
ENDBRANCH   4  15
TORSDOF 4
