REMARK  Name = ZINCfA000001E0UX.0
REMARK                            x       y       z     vdW  Elec       q    Type
REMARK                         _______ _______ _______ _____ _____    ______ ____
ROOT
ATOM      1  N   LIG    1        1.696   3.891  -1.358  0.00  0.00    -0.510 N 
ATOM      2  H   LIG    1        0.926   3.647  -1.963  0.00  0.00    +0.440 HD
ATOM      3  H   LIG    1        2.540   3.452  -1.694  0.00  0.00    +0.420 HD
ENDROOT
BRANCH   1   4
ATOM      4  C   LIG    1        1.412   3.427   0.006  0.00  0.00    +0.350 C 
BRANCH   4   7
ATOM      5  C   LIG    1        3.715   1.484  -0.025  0.00  0.00    +0.160 C 
ATOM      6  C   LIG    1        2.262   1.084  -0.014  0.00  0.00    -0.150 A 
ATOM      7  C   LIG    1        1.232   1.930   0.001  0.00  0.00    -0.180 A 
ATOM      8  C   LIG    1       -0.016   1.331   0.009  0.00  0.00    +0.070 A 
ATOM      9  C   LIG    1        0.002  -0.004   0.002  0.00  0.00    -0.210 A 
ATOM     10 BR   LIG    1       -1.528  -1.115   0.011  0.00  0.00    +0.040 Br
ATOM     11  S   LIG    1        1.667  -0.571  -0.017  0.00  0.00    +0.250 S 
ENDBRANCH   4   7
ENDBRANCH   1   4
BRANCH   1  12
ATOM     12  C   LIG    1        1.871   5.349  -1.352  0.00  0.00    +0.260 C 
BRANCH  12  13
ATOM     13  C   LIG    1        2.167   5.833  -2.773  0.00  0.00    +0.160 C 
ATOM     14  C   LIG    1        2.472   7.346  -2.759  0.00  0.00    +0.040 C 
ATOM     15  C   LIG    1        1.763   7.837  -4.052  0.00  0.00    +0.030 C 
ATOM     16  C   LIG    1        0.536   6.891  -4.093  0.00  0.00    +0.220 C 
ATOM     17  O   LIG    1        1.019   5.629  -3.605  0.00  0.00    -0.380 OA
ENDBRANCH  12  13
ENDBRANCH   1  12
TORSDOF 4
