REMARK  Name = ZINCvU00000004rw.0
REMARK                            x       y       z     vdW  Elec       q    Type
REMARK                         _______ _______ _______ _____ _____    ______ ____
ROOT
ATOM      1  N   LIG    1       -7.025   0.106  -7.438  0.00  0.00    -0.660 N 
ATOM      2  H   LIG    1       -7.629  -0.483  -6.958  0.00  0.00    +0.410 HD
ATOM      3  C   LIG    1       -6.040   0.746  -6.776  0.00  0.00    +0.560 C 
ATOM      4  O   LIG    1       -5.352   1.564  -7.353  0.00  0.00    -0.500 OA
ENDROOT
BRANCH   1  10
ATOM      5  C   LIG    1       -8.417   0.084  -9.418  0.00  0.00    +0.050 A 
ATOM      6  C   LIG    1       -8.562   0.275 -10.783  0.00  0.00    +0.040 A 
ATOM      7  C   LIG    1       -7.476   0.660 -11.547  0.00  0.00    +0.000 A 
ATOM      8  C   LIG    1       -6.244   0.862 -10.952  0.00  0.00    +0.040 A 
ATOM      9  C   LIG    1       -6.092   0.679  -9.590  0.00  0.00    +0.030 A 
ATOM     10  C   LIG    1       -7.177   0.292  -8.817  0.00  0.00    +0.150 A 
BRANCH   5  11
ATOM     11  O   LIG    1       -9.483  -0.301  -8.667  0.00  0.00    -0.260 OA
BRANCH  11  16
ATOM     12  C   LIG    1      -12.664   3.720  -6.336  0.00  0.00    +0.100 C 
ATOM     13  C   LIG    1      -11.813   2.644  -6.959  0.00  0.00    -0.120 A 
ATOM     14  C   LIG    1      -12.063   1.314  -6.675  0.00  0.00    +0.050 A 
ATOM     15  C   LIG    1      -11.284   0.326  -7.245  0.00  0.00    -0.010 A 
ATOM     16  C   LIG    1      -10.250   0.669  -8.104  0.00  0.00    +0.110 A 
ATOM     17  C   LIG    1       -9.998   2.004  -8.384  0.00  0.00    -0.050 A 
ATOM     18  C   LIG    1      -10.783   2.988  -7.816  0.00  0.00    +0.040 A 
ENDBRANCH  11  16
ENDBRANCH   5  11
ENDBRANCH   1  10
BRANCH   3  19
ATOM     19  C   LIG    1       -5.798   0.451  -5.348  0.00  0.00    -0.120 A 
ATOM     20  C   LIG    1       -6.587  -0.488  -4.682  0.00  0.00    +0.030 A 
ATOM     21  C   LIG    1       -6.358  -0.761  -3.349  0.00  0.00    +0.040 A 
ATOM     22  C   LIG    1       -5.349  -0.107  -2.668  0.00  0.00    +0.010 A 
ATOM     23  C   LIG    1       -4.558   0.831  -3.321  0.00  0.00    +0.140 A 
ATOM     24  C   LIG    1       -4.783   1.116  -4.659  0.00  0.00    +0.090 A 
BRANCH  23  25
ATOM     25  N   LIG    1       -3.539   1.492  -2.627  0.00  0.00    -0.670 N 
ATOM     26  H   LIG    1       -3.601   1.604  -1.665  0.00  0.00    +0.410 HD
ATOM     27  C   LIG    1       -2.470   1.972  -3.294  0.00  0.00    +0.510 C 
ATOM     28  O   LIG    1       -2.340   1.740  -4.477  0.00  0.00    -0.490 OA
BRANCH  27  29
ATOM     29  C   LIG    1       -1.438   2.797  -2.569  0.00  0.00    +0.160 C 
ATOM     30  C   LIG    1       -2.068   4.117  -2.085  0.00  0.00    +0.020 C 
ATOM     31  C   LIG    1       -1.210   5.216  -2.759  0.00  0.00    +0.010 C 
ATOM     32  C   LIG    1        0.098   4.452  -3.088  0.00  0.00    +0.210 C 
ATOM     33  O   LIG    1       -0.368   3.137  -3.466  0.00  0.00    -0.350 OA
ENDBRANCH  27  29
ENDBRANCH  23  25
ENDBRANCH   3  19
TORSDOF 6
