REMARK  Name = ZINCkj000005fJKv.1
REMARK                            x       y       z     vdW  Elec       q    Type
REMARK                         _______ _______ _______ _____ _____    ______ ____
ROOT
ATOM      1  N   LIG    1        0.780   3.830   2.075  0.00  0.00    -0.360 N 
ATOM      2  C   LIG    1       -0.641   3.553   2.270  0.00  0.00    +0.250 C 
ATOM      3  C   LIG    1       -1.429   4.158   1.129  0.00  0.00    +0.070 C 
ATOM      4  C   LIG    1       -1.632   3.101   0.023  0.00  0.00    +0.310 C 
ATOM      5  N   LIG    1       -0.414   2.285  -0.156  0.00  0.00    -1.000 NA
ATOM      6  C   LIG    1        0.914   2.863  -0.148  0.00  0.00    +0.350 C 
ATOM      7  C   LIG    1        1.471   2.878   1.294  0.00  0.00    +0.210 C 
ATOM      8  H   LIG    1        0.870   4.732   1.632  0.00  0.00    +0.420 HD
ENDROOT
BRANCH   5   9
ATOM      9  S   LIG    1       -0.573   0.652  -0.379  0.00  0.00    +2.720 S 
ATOM     10  O   LIG    1        0.600   0.224  -1.057  0.00  0.00    -0.930 OA
ATOM     11  O   LIG    1       -1.884   0.442  -0.885  0.00  0.00    -0.920 OA
BRANCH   9  12
ATOM     12  C   LIG    1       -0.529  -0.099   1.214  0.00  0.00    -0.810 A 
ATOM     13  C   LIG    1        0.552  -0.553   1.893  0.00  0.00    +0.110 A 
ATOM     14  O   LIG    1        0.094  -1.037   3.056  0.00  0.00    +0.110 OA
ATOM     15  N   LIG    1       -1.108  -0.931   3.139  0.00  0.00    -0.350 NA
ATOM     16  C   LIG    1        1.986  -0.518   1.433  0.00  0.00    +0.210 C 
ATOM     17  C   LIG    1       -1.614  -0.373   2.078  0.00  0.00    +0.110 A 
ATOM     18  C   LIG    1       -3.069  -0.076   1.821  0.00  0.00    +0.180 C 
ENDBRANCH   9  12
ENDBRANCH   5   9
BRANCH   1  19
ATOM     19  C   LIG    1        1.420   3.899   3.396  0.00  0.00    +0.250 C 
BRANCH  19  21
ATOM     20  C   LIG    1        3.456   4.654   4.632  0.00  0.00    +0.060 C 
ATOM     21  C   LIG    1        2.839   4.451   3.246  0.00  0.00    +0.030 C 
ENDBRANCH  19  21
ENDBRANCH   1  19
TORSDOF 4
