REMARK  Name = ZINCkj000005fJKv.2
REMARK                            x       y       z     vdW  Elec       q    Type
REMARK                         _______ _______ _______ _____ _____    ______ ____
ROOT
ATOM      1  N   LIG    1        0.310   2.089   3.977  0.00  0.00    -0.390 N 
ATOM      2  C   LIG    1       -1.065   1.731   4.215  0.00  0.00    +0.260 C 
ATOM      3  C   LIG    1       -1.329   0.553   3.286  0.00  0.00    +0.040 C 
ATOM      4  C   LIG    1       -1.873   0.927   1.976  0.00  0.00    +0.330 C 
ATOM      5  N   LIG    1       -0.875   1.865   1.354  0.00  0.00    -1.010 NA
ATOM      6  C   LIG    1       -0.677   3.157   1.952  0.00  0.00    +0.310 C 
ATOM      7  C   LIG    1        0.388   3.258   3.060  0.00  0.00    +0.260 C 
ATOM      8  H   LIG    1        0.792   1.306   3.562  0.00  0.00    +0.420 HD
ENDROOT
BRANCH   5   9
ATOM      9  S   LIG    1       -0.017   1.417   0.010  0.00  0.00    +2.720 S 
ATOM     10  O   LIG    1        1.162   2.210   0.003  0.00  0.00    -0.940 OA
ATOM     11  O   LIG    1        0.002  -0.004   0.002  0.00  0.00    -0.930 OA
BRANCH   9  12
ATOM     12  C   LIG    1       -0.957   1.909  -1.397  0.00  0.00    -0.810 A 
ATOM     13  C   LIG    1       -0.906   3.088  -2.063  0.00  0.00    +0.120 A 
ATOM     14  O   LIG    1       -1.799   3.000  -3.059  0.00  0.00    +0.110 OA
ATOM     15  N   LIG    1       -2.360   1.929  -3.059  0.00  0.00    -0.350 NA
ATOM     16  C   LIG    1       -0.021   4.266  -1.746  0.00  0.00    +0.230 C 
ATOM     17  C   LIG    1       -1.933   1.164  -2.096  0.00  0.00    +0.110 A 
ATOM     18  C   LIG    1       -2.392  -0.238  -1.786  0.00  0.00    +0.180 C 
ENDBRANCH   9  12
ENDBRANCH   5   9
BRANCH   1  19
ATOM     19  C   LIG    1        0.951   2.433   5.253  0.00  0.00    +0.240 C 
BRANCH  19  21
ATOM     20  C   LIG    1        1.670   1.552   7.478  0.00  0.00    +0.060 C 
ATOM     21  C   LIG    1        1.002   1.193   6.149  0.00  0.00    +0.030 C 
ENDBRANCH  19  21
ENDBRANCH   1  19
TORSDOF 4
