REMARK  Name = ZINCqH0000004WGa.0
REMARK                            x       y       z     vdW  Elec       q    Type
REMARK                         _______ _______ _______ _____ _____    ______ ____
ROOT
ATOM      1  C   LIG    1       -6.920  -0.876   0.066  0.00  0.00    +0.290 C 
ATOM      2  N   LIG    1       -6.513   0.531   0.070  0.00  0.00    -0.610 N 
ATOM      3  C   LIG    1       -5.205   0.854   0.058  0.00  0.00    +0.530 C 
ATOM      4  O   LIG    1       -4.868   2.019   0.061  0.00  0.00    -0.530 OA
ENDROOT
BRANCH   2   5
ATOM      5  C   LIG    1       -7.528   1.588   0.085  0.00  0.00    +0.250 C 
ATOM      6  C   LIG    1       -8.448   1.494  -1.161  0.00  0.00    +0.040 C 
ATOM      7  C   LIG    1       -9.761   2.141  -0.671  0.00  0.00    +0.270 C 
ATOM      8  N   LIG    1       -9.768   2.056   0.797  0.00  0.00    -0.610 N 
ATOM      9  C   LIG    1      -10.737   2.529   1.606  0.00  0.00    +0.670 C 
ATOM     10  O   LIG    1      -10.637   2.402   2.811  0.00  0.00    -0.560 OA
ATOM     11  C   LIG    1       -8.541   1.368   1.237  0.00  0.00    +0.290 C 
BRANCH   9  12
ATOM     12  O   LIG    1      -11.814   3.141   1.080  0.00  0.00    -0.360 OA
BRANCH  12  13
ATOM     13  C   LIG    1      -12.817   3.626   2.012  0.00  0.00    +0.140 C 
ATOM     14  C   LIG    1      -13.368   2.452   2.824  0.00  0.00    +0.040 C 
ATOM     15  C   LIG    1      -13.957   4.287   1.235  0.00  0.00    +0.080 C 
ATOM     16  C   LIG    1      -12.184   4.648   2.958  0.00  0.00    +0.040 C 
ENDBRANCH  12  13
ENDBRANCH   9  12
ENDBRANCH   2   5
BRANCH   3  17
ATOM     17  C   LIG    1       -4.161  -0.232   0.042  0.00  0.00    +0.100 C 
BRANCH  17  18
ATOM     18  C   LIG    1       -2.767   0.400   0.032  0.00  0.00    +0.100 C 
BRANCH  18  19
ATOM     19  S   LIG    1       -1.510  -0.908   0.012  0.00  0.00    -0.090 S 
BRANCH  19  20
ATOM     20  C   LIG    1        0.002  -0.004   0.002  0.00  0.00    -0.120 A 
ATOM     21  C   LIG    1       -0.017   1.384   0.010  0.00  0.00    +0.030 A 
ATOM     22  C   LIG    1        1.171   2.090   0.002  0.00  0.00    +0.020 A 
ATOM     23  C   LIG    1        2.378   1.417  -0.013  0.00  0.00    +0.050 A 
ATOM     24  C   LIG    1        2.403   0.033  -0.021  0.00  0.00    +0.000 A 
ATOM     25  C   LIG    1        1.219  -0.680  -0.013  0.00  0.00    +0.110 A 
ATOM     26  F   LIG    1        1.242  -2.031  -0.020  0.00  0.00    -0.130 F 
ENDBRANCH  19  20
ENDBRANCH  18  19
ENDBRANCH  17  18
ENDBRANCH   3  17
TORSDOF 7
