REMARK  Name = ZINCqH0000006OpE.0
REMARK                            x       y       z     vdW  Elec       q    Type
REMARK                         _______ _______ _______ _____ _____    ______ ____
ROOT
ATOM      1  N   LIG    1        2.393   1.758  -0.021  0.00  0.00    -0.660 N 
ATOM      2  H   LIG    1        2.409   0.791   0.060  0.00  0.00    +0.410 HD
ATOM      3  C   LIG    1        3.549   2.444  -0.130  0.00  0.00    +0.560 C 
ATOM      4  O   LIG    1        3.536   3.659  -0.129  0.00  0.00    -0.500 OA
ENDROOT
BRANCH   1   8
ATOM      5  C   LIG    1       -1.252   3.788  -0.026  0.00  0.00    +0.100 A 
ATOM      6  C   LIG    1       -1.153   2.544   0.575  0.00  0.00    +0.010 A 
ATOM      7  C   LIG    1        0.056   1.873   0.581  0.00  0.00    -0.070 A 
ATOM      8  C   LIG    1        1.171   2.441  -0.024  0.00  0.00    +0.170 A 
ATOM      9  C   LIG    1        1.072   3.685  -0.631  0.00  0.00    -0.010 A 
ATOM     10 CL   LIG    1        0.180   0.317   1.340  0.00  0.00    -0.060 Cl
ATOM     11  C   LIG    1       -0.138   4.359  -0.633  0.00  0.00    +0.130 A 
BRANCH   5  13
ATOM     12  C   LIG    1       -3.543   3.805   0.614  0.00  0.00    +0.240 C 
ATOM     13  O   LIG    1       -2.441   4.450  -0.028  0.00  0.00    -0.300 OA
ENDBRANCH   5  13
BRANCH  11  14
ATOM     14  O   LIG    1       -0.236   5.579  -1.228  0.00  0.00    -0.300 OA
ATOM     15  C   LIG    1        0.948   6.104  -1.832  0.00  0.00    +0.240 C 
ENDBRANCH  11  14
ENDBRANCH   1   8
BRANCH   3  16
ATOM     16  C   LIG    1        4.831   1.718  -0.251  0.00  0.00    -0.110 A 
ATOM     17  C   LIG    1        4.848   0.322  -0.247  0.00  0.00    +0.020 A 
ATOM     18  C   LIG    1        6.046  -0.353  -0.366  0.00  0.00    +0.050 A 
ATOM     19  C   LIG    1        7.232   0.348  -0.478  0.00  0.00    +0.000 A 
ATOM     20  C   LIG    1        7.226   1.738  -0.477  0.00  0.00    +0.160 A 
ATOM     21  C   LIG    1        6.028   2.425  -0.364  0.00  0.00    +0.070 A 
BRANCH  20  22
ATOM     22  N   LIG    1        8.429   2.443  -0.592  0.00  0.00    -0.560 N 
ATOM     23  C   LIG    1        9.737   1.817  -0.820  0.00  0.00    +0.260 C 
ATOM     24  C   LIG    1       10.659   2.960  -1.307  0.00  0.00    +0.060 C 
ATOM     25  C   LIG    1        9.979   4.199  -0.681  0.00  0.00    +0.070 C 
ATOM     26  C   LIG    1        8.536   3.780  -0.500  0.00  0.00    +0.510 C 
ATOM     27  O   LIG    1        7.612   4.539  -0.302  0.00  0.00    -0.500 OA
ENDBRANCH  20  22
ENDBRANCH   3  16
TORSDOF 5
